/*---------------------------------------------------------------------------*\
  =========                 |
  \\      /  F ield         | OpenFOAM: The Open Source CFD Toolbox
   \\    /   O peration     | Website:  https://openfoam.org
    \\  /    A nd           | Version:  7
     \\/     M anipulation  |
\*---------------------------------------------------------------------------*/
Build  : 7-3bcbaf946ae9
Exec   : vardensFoam
Date   : Dec 11 2020
Time   : 14:46:31
Host   : "juan-TM1703"
PID    : 236764
I/O    : uncollated
Case   : /home/juan/Dropbox/workspace/porousMultiphaseFoam/tutorials/vardensFoam-tutorials/box
nProcs : 1
sigFpe : Enabling floating point exception trapping (FOAM_SIGFPE).
fileModificationChecking : Monitoring run-time modified files using timeStampMaster (fileModificationSkew 10)
allowSystemOperations : Allowing user-supplied system call operations

// * * * * * * * * * * * * * * * * * * * * * * * * * * * * * * * * * * * * * //
Create time

Create mesh for time = 0


Reading g
Reading Pressure head h 

Reading transportProperties

Selecting relativePermeability model => Ippisch

Ippisch-Vogel-Bastian parameters for relative permeability model
{
    m 0.5
    Smax 1
    Smin 0.102
    m 0.5
    alpha 3.35
    tau 0.4
    he 0.0058
} 

Selecting capillarity model => Ippisch

Ippisch parameters for capillary pressure model
{
    m 0.5
    n 2
    alpha 3.35
    tau 0.4
    he 0.0058
} 

Computing field theta 

Reading permeability field K


Reading speficic storage : Ss = 0
Reading porosity field eps (if present)
Reading composition

Species C

porousTransport parameters
{
    Kd : 1
    rs : 1000
    epsTotal : 0.35
    lambda : 0
}

Computing retard coefficient: Min(R) = 1858.14 Max(R) = 1858.14
Selecting dispersion model => alphaDispersion

Parameters for alpha dispersion model
{
    tau 1
    alphaL 0
    alphaT 0
} 

Creating density
Selecting density model => linearDensity

Parameters for linear density model
{
    rho0 1000
    beta 0
} 

Timestepping is based on theta variation with :
{
    dthetamax   = 0.01
}


no MNT patch (no seepage condition)

Starting time loop

deltaT = 0.1 ; dtheta = 0
Time = 0.1

DICPCG:  Solving for h, Initial residual = 1, Final residual = 3.00004e-13, No Iterations 29
Picard iteration (H) : 1 residual = 0.975
dimensions      [0 0 0 0 0 0 0];

internalField   uniform 1858.14;

boundaryField
{
    x0
    {
        type            calculated;
        value           uniform 1858.14;
    }
    x1
    {
        type            calculated;
        value           uniform 1858.14;
    }
    y0
    {
        type            calculated;
        value           uniform 1858.14;
    }
    y1
    {
        type            calculated;
        value           uniform 1858.14;
    }
    z0
    {
        type            empty;
    }
    z1
    {
        type            empty;
    }
}

DILUPBiCG:  Solving for C, Initial residual = 1, Final residual = 3.60456e-13, No Iterations 1
Concentration Min(C) = 1.67197e-108 Max(C) = 1 dCdTmax = 7.89112e-05 mass(C) = 7.89115e-07 dCmax = 7.89112e-06
Picard iteration (C) : 1 residual = 7.89112e-06
DICPCG:  Solving for h, Initial residual = 1.50051e-13, Final residual = 1.50051e-13, No Iterations 0
Picard iteration (H) : 2 residual = 0
dimensions      [0 0 0 0 0 0 0];

internalField   uniform 1858.14;

boundaryField
{
    x0
    {
        type            calculated;
        value           uniform 1858.14;
    }
    x1
    {
        type            calculated;
        value           uniform 1858.14;
    }
    y0
    {
        type            calculated;
        value           uniform 1858.14;
    }
    y1
    {
        type            calculated;
        value           uniform 1858.14;
    }
    z0
    {
        type            empty;
    }
    z1
    {
        type            empty;
    }
}

DILUPBiCG:  Solving for C, Initial residual = 9.48568e-14, Final residual = 9.48568e-14, No Iterations 0
Concentration Min(C) = 1.67197e-108 Max(C) = 1 dCdTmax = 7.89112e-05 mass(C) = 7.89115e-07 dCmax = 7.89112e-06
Picard iteration (C) : 2 residual = 0
Saturation theta  Min(theta) = 1 Max(theta) = 1
Head pressure h   Min(h) = 0.025 Max(h) = 0.975
Water mass balance (m3/s) : sourceTerm = 0 ; x0 = -0.00500001 ; x1 = 0.00500001 ; y0 = 0 ; y1 = 0 ; 
C mass balance (kg/s) : sourceTerm = 0 ; x0 = -0.00500001 ; x1 = 8.35989e-111 ; y0 = 0 ; y1 = 0 ; 
ExecutionTime = 0.01 s  ClockTime = 0 s

deltaT = 0.0141418 ; dtheta = 0
Time = 0.114142

DICPCG:  Solving for h, Initial residual = 1.50051e-13, Final residual = 1.50051e-13, No Iterations 0
Picard iteration (H) : 1 residual = 0
dimensions      [0 0 0 0 0 0 0];

internalField   uniform 1858.14;

boundaryField
{
    x0
    {
        type            calculated;
        value           uniform 1858.14;
    }
    x1
    {
        type            calculated;
        value           uniform 1858.14;
    }
    y0
    {
        type            calculated;
        value           uniform 1858.14;
    }
    y1
    {
        type            calculated;
        value           uniform 1858.14;
    }
    z0
    {
        type            empty;
    }
    z1
    {
        type            empty;
    }
}

DILUPBiCG:  Solving for C, Initial residual = 0.0358802, Final residual = 2.6325e-16, No Iterations 1
Concentration Min(C) = 1.94737e-108 Max(C) = 1 dCdTmax = 7.89111e-05 mass(C) = 9.0071e-07 dCmax = 1.11595e-06
Picard iteration (C) : 1 residual = 1.11595e-06
Saturation theta  Min(theta) = 1 Max(theta) = 1
Head pressure h   Min(h) = 0.025 Max(h) = 0.975
Water mass balance (m3/s) : sourceTerm = 0 ; x0 = -0.00500001 ; x1 = 0.00500001 ; y0 = 0 ; y1 = 0 ; 
C mass balance (kg/s) : sourceTerm = 0 ; x0 = -0.00500001 ; x1 = 9.73686e-111 ; y0 = 0 ; y1 = 0 ; 
ExecutionTime = 0.01 s  ClockTime = 0 s

deltaT = 0.01697 ; dtheta = 0
Time = 0.131112

DICPCG:  Solving for h, Initial residual = 1.50051e-13, Final residual = 1.50051e-13, No Iterations 0
Picard iteration (H) : 1 residual = 0
dimensions      [0 0 0 0 0 0 0];

internalField   uniform 1858.14;

boundaryField
{
    x0
    {
        type            calculated;
        value           uniform 1858.14;
    }
    x1
    {
        type            calculated;
        value           uniform 1858.14;
    }
    y0
    {
        type            calculated;
        value           uniform 1858.14;
    }
    y1
    {
        type            calculated;
        value           uniform 1858.14;
    }
    z0
    {
        type            empty;
    }
    z1
    {
        type            empty;
    }
}

DILUPBiCG:  Solving for C, Initial residual = 0.037652, Final residual = 3.92381e-16, No Iterations 1
Concentration Min(C) = 2.34538e-108 Max(C) = 1 dCdTmax = 7.89111e-05 mass(C) = 1.03462e-06 dCmax = 1.33912e-06
Picard iteration (C) : 1 residual = 1.33912e-06
Saturation theta  Min(theta) = 1 Max(theta) = 1
Head pressure h   Min(h) = 0.025 Max(h) = 0.975
Water mass balance (m3/s) : sourceTerm = 0 ; x0 = -0.00500001 ; x1 = 0.00500001 ; y0 = 0 ; y1 = 0 ; 
C mass balance (kg/s) : sourceTerm = 0 ; x0 = -0.00500001 ; x1 = 1.17269e-110 ; y0 = 0 ; y1 = 0 ; 
ExecutionTime = 0.01 s  ClockTime = 0 s

deltaT = 0.0203637 ; dtheta = 0
Time = 0.151476

DICPCG:  Solving for h, Initial residual = 1.50051e-13, Final residual = 1.50051e-13, No Iterations 0
Picard iteration (H) : 1 residual = 0
dimensions      [0 0 0 0 0 0 0];

internalField   uniform 1858.14;

boundaryField
{
    x0
    {
        type            calculated;
        value           uniform 1858.14;
    }
    x1
    {
        type            calculated;
        value           uniform 1858.14;
    }
    y0
    {
        type            calculated;
        value           uniform 1858.14;
    }
    y1
    {
        type            calculated;
        value           uniform 1858.14;
    }
    z0
    {
        type            empty;
    }
    z1
    {
        type            empty;
    }
}

DILUPBiCG:  Solving for C, Initial residual = 0.0392678, Final residual = 5.87664e-16, No Iterations 1
Concentration Min(C) = 2.94511e-108 Max(C) = 1 dCdTmax = 7.8911e-05 mass(C) = 1.19532e-06 dCmax = 1.60692e-06
Picard iteration (C) : 1 residual = 1.60692e-06
Saturation theta  Min(theta) = 1 Max(theta) = 1
Head pressure h   Min(h) = 0.025 Max(h) = 0.975
Water mass balance (m3/s) : sourceTerm = 0 ; x0 = -0.00500001 ; x1 = 0.00500001 ; y0 = 0 ; y1 = 0 ; 
C mass balance (kg/s) : sourceTerm = 0 ; x0 = -0.00500001 ; x1 = 1.47256e-110 ; y0 = 0 ; y1 = 0 ; 
ExecutionTime = 0.01 s  ClockTime = 0 s

deltaT = 0.0244365 ; dtheta = 0
Time = 0.175912

DICPCG:  Solving for h, Initial residual = 1.50051e-13, Final residual = 1.50051e-13, No Iterations 0
Picard iteration (H) : 1 residual = 0
dimensions      [0 0 0 0 0 0 0];

internalField   uniform 1858.14;

boundaryField
{
    x0
    {
        type            calculated;
        value           uniform 1858.14;
    }
    x1
    {
        type            calculated;
        value           uniform 1858.14;
    }
    y0
    {
        type            calculated;
        value           uniform 1858.14;
    }
    y1
    {
        type            calculated;
        value           uniform 1858.14;
    }
    z0
    {
        type            empty;
    }
    z1
    {
        type            empty;
    }
}

DILUPBiCG:  Solving for C, Initial residual = 0.0407247, Final residual = 8.79007e-16, No Iterations 1
Concentration Min(C) = 3.89754e-108 Max(C) = 1 dCdTmax = 7.89109e-05 mass(C) = 1.38815e-06 dCmax = 1.92831e-06
Picard iteration (C) : 1 residual = 1.92831e-06
Saturation theta  Min(theta) = 1 Max(theta) = 1
Head pressure h   Min(h) = 0.025 Max(h) = 0.975
Water mass balance (m3/s) : sourceTerm = 0 ; x0 = -0.00500001 ; x1 = 0.00500001 ; y0 = 0 ; y1 = 0 ; 
C mass balance (kg/s) : sourceTerm = 0 ; x0 = -0.00500001 ; x1 = 1.94877e-110 ; y0 = 0 ; y1 = 0 ; 
ExecutionTime = 0.02 s  ClockTime = 0 s

deltaT = 0.0293238 ; dtheta = 0
Time = 0.205236

DICPCG:  Solving for h, Initial residual = 1.50051e-13, Final residual = 1.50051e-13, No Iterations 0
Picard iteration (H) : 1 residual = 0
dimensions      [0 0 0 0 0 0 0];

internalField   uniform 1858.14;

boundaryField
{
    x0
    {
        type            calculated;
        value           uniform 1858.14;
    }
    x1
    {
        type            calculated;
        value           uniform 1858.14;
    }
    y0
    {
        type            calculated;
        value           uniform 1858.14;
    }
    y1
    {
        type            calculated;
        value           uniform 1858.14;
    }
    z0
    {
        type            empty;
    }
    z1
    {
        type            empty;
    }
}

DILUPBiCG:  Solving for C, Initial residual = 0.042024, Final residual = 1.30768e-15, No Iterations 1
Concentration Min(C) = 5.51464e-108 Max(C) = 1 dCdTmax = 7.89108e-05 mass(C) = 1.61955e-06 dCmax = 2.31396e-06
Picard iteration (C) : 1 residual = 2.31396e-06
Saturation theta  Min(theta) = 1 Max(theta) = 1
Head pressure h   Min(h) = 0.025 Max(h) = 0.975
Water mass balance (m3/s) : sourceTerm = 0 ; x0 = -0.00500001 ; x1 = 0.00500001 ; y0 = 0 ; y1 = 0 ; 
C mass balance (kg/s) : sourceTerm = 0 ; x0 = -0.00500001 ; x1 = 2.75732e-110 ; y0 = 0 ; y1 = 0 ; 
ExecutionTime = 0.02 s  ClockTime = 0 s

deltaT = 0.0351869 ; dtheta = 0
Time = 0.240423

DICPCG:  Solving for h, Initial residual = 1.50051e-13, Final residual = 1.50051e-13, No Iterations 0
Picard iteration (H) : 1 residual = 0
dimensions      [0 0 0 0 0 0 0];

internalField   uniform 1858.14;

boundaryField
{
    x0
    {
        type            calculated;
        value           uniform 1858.14;
    }
    x1
    {
        type            calculated;
        value           uniform 1858.14;
    }
    y0
    {
        type            calculated;
        value           uniform 1858.14;
    }
    y1
    {
        type            calculated;
        value           uniform 1858.14;
    }
    z0
    {
        type            empty;
    }
    z1
    {
        type            empty;
    }
}

DILUPBiCG:  Solving for C, Initial residual = 0.0431699, Final residual = 1.92803e-15, No Iterations 1
Concentration Min(C) = 8.50852e-108 Max(C) = 1 dCdTmax = 7.89107e-05 mass(C) = 1.89721e-06 dCmax = 2.77662e-06
Picard iteration (C) : 1 residual = 2.77662e-06
Saturation theta  Min(theta) = 1 Max(theta) = 1
Head pressure h   Min(h) = 0.025 Max(h) = 0.975
Water mass balance (m3/s) : sourceTerm = 0 ; x0 = -0.00500001 ; x1 = 0.00500001 ; y0 = 0 ; y1 = 0 ; 
C mass balance (kg/s) : sourceTerm = 0 ; x0 = -0.00500001 ; x1 = 4.25427e-110 ; y0 = 0 ; y1 = 0 ; 
ExecutionTime = 0.02 s  ClockTime = 0 s

deltaT = 0.0422237 ; dtheta = 0
Time = 0.282646

DICPCG:  Solving for h, Initial residual = 1.50051e-13, Final residual = 1.50051e-13, No Iterations 0
Picard iteration (H) : 1 residual = 0
dimensions      [0 0 0 0 0 0 0];

internalField   uniform 1858.14;

boundaryField
{
    x0
    {
        type            calculated;
        value           uniform 1858.14;
    }
    x1
    {
        type            calculated;
        value           uniform 1858.14;
    }
    y0
    {
        type            calculated;
        value           uniform 1858.14;
    }
    y1
    {
        type            calculated;
        value           uniform 1858.14;
    }
    z0
    {
        type            empty;
    }
    z1
    {
        type            empty;
    }
}

DILUPBiCG:  Solving for C, Initial residual = 0.0441751, Final residual = 2.86493e-15, No Iterations 1
Concentration Min(C) = 1.47267e-107 Max(C) = 1 dCdTmax = 7.89106e-05 mass(C) = 2.2304e-06 dCmax = 3.3319e-06
Picard iteration (C) : 1 residual = 3.3319e-06
Saturation theta  Min(theta) = 1 Max(theta) = 1
Head pressure h   Min(h) = 0.025 Max(h) = 0.975
Water mass balance (m3/s) : sourceTerm = 0 ; x0 = -0.00500001 ; x1 = 0.00500001 ; y0 = 0 ; y1 = 0 ; 
C mass balance (kg/s) : sourceTerm = 0 ; x0 = -0.00500001 ; x1 = 7.36334e-110 ; y0 = 0 ; y1 = 0 ; 
ExecutionTime = 0.02 s  ClockTime = 0 s

deltaT = 0.0506659 ; dtheta = 0
Time = 0.333312

DICPCG:  Solving for h, Initial residual = 1.50051e-13, Final residual = 1.50051e-13, No Iterations 0
Picard iteration (H) : 1 residual = 0
dimensions      [0 0 0 0 0 0 0];

internalField   uniform 1858.14;

boundaryField
{
    x0
    {
        type            calculated;
        value           uniform 1858.14;
    }
    x1
    {
        type            calculated;
        value           uniform 1858.14;
    }
    y0
    {
        type            calculated;
        value           uniform 1858.14;
    }
    y1
    {
        type            calculated;
        value           uniform 1858.14;
    }
    z0
    {
        type            empty;
    }
    z1
    {
        type            empty;
    }
}

DILUPBiCG:  Solving for C, Initial residual = 0.0450477, Final residual = 4.18871e-15, No Iterations 1
Concentration Min(C) = 2.98502e-107 Max(C) = 1 dCdTmax = 7.89104e-05 mass(C) = 2.63022e-06 dCmax = 3.99806e-06
Picard iteration (C) : 1 residual = 3.99806e-06
Saturation theta  Min(theta) = 1 Max(theta) = 1
Head pressure h   Min(h) = 0.025 Max(h) = 0.975
Water mass balance (m3/s) : sourceTerm = 0 ; x0 = -0.00500001 ; x1 = 0.00500001 ; y0 = 0 ; y1 = 0 ; 
C mass balance (kg/s) : sourceTerm = 0 ; x0 = -0.00500001 ; x1 = 1.49251e-109 ; y0 = 0 ; y1 = 0 ; 
ExecutionTime = 0.02 s  ClockTime = 0 s

deltaT = 0.0607941 ; dtheta = 0
Time = 0.394106

DICPCG:  Solving for h, Initial residual = 1.50051e-13, Final residual = 1.50051e-13, No Iterations 0
Picard iteration (H) : 1 residual = 0
dimensions      [0 0 0 0 0 0 0];

internalField   uniform 1858.14;

boundaryField
{
    x0
    {
        type            calculated;
        value           uniform 1858.14;
    }
    x1
    {
        type            calculated;
        value           uniform 1858.14;
    }
    y0
    {
        type            calculated;
        value           uniform 1858.14;
    }
    y1
    {
        type            calculated;
        value           uniform 1858.14;
    }
    z0
    {
        type            empty;
    }
    z1
    {
        type            empty;
    }
}

DILUPBiCG:  Solving for C, Initial residual = 0.0458003, Final residual = 6.1041e-15, No Iterations 1
Concentration Min(C) = 7.60914e-107 Max(C) = 1 dCdTmax = 7.89102e-05 mass(C) = 3.10995e-06 dCmax = 4.79727e-06
Picard iteration (C) : 1 residual = 4.79727e-06
Saturation theta  Min(theta) = 1 Max(theta) = 1
Head pressure h   Min(h) = 0.025 Max(h) = 0.975
Water mass balance (m3/s) : sourceTerm = 0 ; x0 = -0.00500001 ; x1 = 0.00500001 ; y0 = 0 ; y1 = 0 ; 
C mass balance (kg/s) : sourceTerm = 0 ; x0 = -0.00500001 ; x1 = 3.80458e-109 ; y0 = 0 ; y1 = 0 ; 
ExecutionTime = 0.02 s  ClockTime = 0 s

deltaT = 0.0729458 ; dtheta = 0
Time = 0.467052

DICPCG:  Solving for h, Initial residual = 1.50051e-13, Final residual = 1.50051e-13, No Iterations 0
Picard iteration (H) : 1 residual = 0
dimensions      [0 0 0 0 0 0 0];

internalField   uniform 1858.14;

boundaryField
{
    x0
    {
        type            calculated;
        value           uniform 1858.14;
    }
    x1
    {
        type            calculated;
        value           uniform 1858.14;
    }
    y0
    {
        type            calculated;
        value           uniform 1858.14;
    }
    y1
    {
        type            calculated;
        value           uniform 1858.14;
    }
    z0
    {
        type            empty;
    }
    z1
    {
        type            empty;
    }
}

DILUPBiCG:  Solving for C, Initial residual = 0.0464464, Final residual = 8.9144e-15, No Iterations 1
Concentration Min(C) = 2.77505e-106 Max(C) = 1 dCdTmax = 7.891e-05 mass(C) = 3.68558e-06 dCmax = 5.75615e-06
Picard iteration (C) : 1 residual = 5.75615e-06
Saturation theta  Min(theta) = 1 Max(theta) = 1
Head pressure h   Min(h) = 0.025 Max(h) = 0.975
Water mass balance (m3/s) : sourceTerm = 0 ; x0 = -0.00500001 ; x1 = 0.00500001 ; y0 = 0 ; y1 = 0 ; 
C mass balance (kg/s) : sourceTerm = 0 ; x0 = -0.00500001 ; x1 = 1.38753e-108 ; y0 = 0 ; y1 = 0 ; 
ExecutionTime = 0.02 s  ClockTime = 0 s

deltaT = 0.0875299 ; dtheta = 0
Time = 0.554582

DICPCG:  Solving for h, Initial residual = 1.50051e-13, Final residual = 1.50051e-13, No Iterations 0
Picard iteration (H) : 1 residual = 0
dimensions      [0 0 0 0 0 0 0];

internalField   uniform 1858.14;

boundaryField
{
    x0
    {
        type            calculated;
        value           uniform 1858.14;
    }
    x1
    {
        type            calculated;
        value           uniform 1858.14;
    }
    y0
    {
        type            calculated;
        value           uniform 1858.14;
    }
    y1
    {
        type            calculated;
        value           uniform 1858.14;
    }
    z0
    {
        type            empty;
    }
    z1
    {
        type            empty;
    }
}

DILUPBiCG:  Solving for C, Initial residual = 0.0470006, Final residual = 1.29858e-14, No Iterations 1
Concentration Min(C) = 1.78131e-105 Max(C) = 1 dCdTmax = 7.89097e-05 mass(C) = 4.37629e-06 dCmax = 6.90695e-06
Picard iteration (C) : 1 residual = 6.90695e-06
Saturation theta  Min(theta) = 1 Max(theta) = 1
Head pressure h   Min(h) = 0.025 Max(h) = 0.975
Water mass balance (m3/s) : sourceTerm = 0 ; x0 = -0.00500001 ; x1 = 0.00500001 ; y0 = 0 ; y1 = 0 ; 
C mass balance (kg/s) : sourceTerm = 0 ; x0 = -0.00500001 ; x1 = 8.90655e-108 ; y0 = 0 ; y1 = 0 ; 
ExecutionTime = 0.03 s  ClockTime = 0 s

deltaT = 0.0999891 ; dtheta = 0
Time = 0.654571

DICPCG:  Solving for h, Initial residual = 1.50051e-13, Final residual = 1.50051e-13, No Iterations 0
Picard iteration (H) : 1 residual = 0
dimensions      [0 0 0 0 0 0 0];

internalField   uniform 1858.14;

boundaryField
{
    x0
    {
        type            calculated;
        value           uniform 1858.14;
    }
    x1
    {
        type            calculated;
        value           uniform 1858.14;
    }
    y0
    {
        type            calculated;
        value           uniform 1858.14;
    }
    y1
    {
        type            calculated;
        value           uniform 1858.14;
    }
    z0
    {
        type            empty;
    }
    z1
    {
        type            empty;
    }
}

DILUPBiCG:  Solving for C, Initial residual = 0.0452976, Final residual = 1.63301e-14, No Iterations 1
Concentration Min(C) = 1.7114e-104 Max(C) = 1 dCdTmax = 7.89094e-05 mass(C) = 5.16532e-06 dCmax = 7.89007e-06
Picard iteration (C) : 1 residual = 7.89007e-06
Saturation theta  Min(theta) = 1 Max(theta) = 1
Head pressure h   Min(h) = 0.025 Max(h) = 0.975
Water mass balance (m3/s) : sourceTerm = 0 ; x0 = -0.00500001 ; x1 = 0.00500001 ; y0 = 0 ; y1 = 0 ; 
C mass balance (kg/s) : sourceTerm = 0 ; x0 = -0.00500001 ; x1 = 8.55701e-107 ; y0 = 0 ; y1 = 0 ; 
ExecutionTime = 0.03 s  ClockTime = 0 s

deltaT = 0.0999891 ; dtheta = 0
Time = 0.75456

DICPCG:  Solving for h, Initial residual = 1.50051e-13, Final residual = 1.50051e-13, No Iterations 0
Picard iteration (H) : 1 residual = 0
dimensions      [0 0 0 0 0 0 0];

internalField   uniform 1858.14;

boundaryField
{
    x0
    {
        type            calculated;
        value           uniform 1858.14;
    }
    x1
    {
        type            calculated;
        value           uniform 1858.14;
    }
    y0
    {
        type            calculated;
        value           uniform 1858.14;
    }
    y1
    {
        type            calculated;
        value           uniform 1858.14;
    }
    z0
    {
        type            empty;
    }
    z1
    {
        type            empty;
    }
}

DILUPBiCG:  Solving for C, Initial residual = 0.0386457, Final residual = 1.3927e-14, No Iterations 1
Concentration Min(C) = 1.10001e-103 Max(C) = 1 dCdTmax = 7.8909e-05 mass(C) = 5.95434e-06 dCmax = 7.89004e-06
Picard iteration (C) : 1 residual = 7.89004e-06
Saturation theta  Min(theta) = 1 Max(theta) = 1
Head pressure h   Min(h) = 0.025 Max(h) = 0.975
Water mass balance (m3/s) : sourceTerm = 0 ; x0 = -0.00500001 ; x1 = 0.00500001 ; y0 = 0 ; y1 = 0 ; 
C mass balance (kg/s) : sourceTerm = 0 ; x0 = -0.00500001 ; x1 = 5.50004e-106 ; y0 = 0 ; y1 = 0 ; 
ExecutionTime = 0.03 s  ClockTime = 0 s

deltaT = 0.0999891 ; dtheta = 0
Time = 0.854549

DICPCG:  Solving for h, Initial residual = 1.50051e-13, Final residual = 1.50051e-13, No Iterations 0
Picard iteration (H) : 1 residual = 0
dimensions      [0 0 0 0 0 0 0];

internalField   uniform 1858.14;

boundaryField
{
    x0
    {
        type            calculated;
        value           uniform 1858.14;
    }
    x1
    {
        type            calculated;
        value           uniform 1858.14;
    }
    y0
    {
        type            calculated;
        value           uniform 1858.14;
    }
    y1
    {
        type            calculated;
        value           uniform 1858.14;
    }
    z0
    {
        type            empty;
    }
    z1
    {
        type            empty;
    }
}

DILUPBiCG:  Solving for C, Initial residual = 0.0336973, Final residual = 1.21459e-14, No Iterations 1
Concentration Min(C) = 5.54653e-103 Max(C) = 1 dCdTmax = 7.89087e-05 mass(C) = 6.74337e-06 dCmax = 7.89001e-06
Picard iteration (C) : 1 residual = 7.89001e-06
Saturation theta  Min(theta) = 1 Max(theta) = 1
Head pressure h   Min(h) = 0.025 Max(h) = 0.975
Water mass balance (m3/s) : sourceTerm = 0 ; x0 = -0.00500001 ; x1 = 0.00500001 ; y0 = 0 ; y1 = 0 ; 
C mass balance (kg/s) : sourceTerm = 0 ; x0 = -0.00500001 ; x1 = 2.77327e-105 ; y0 = 0 ; y1 = 0 ; 
ExecutionTime = 0.03 s  ClockTime = 0 s

deltaT = 0.0999891 ; dtheta = 0
Time = 0.954538

DICPCG:  Solving for h, Initial residual = 1.50051e-13, Final residual = 1.50051e-13, No Iterations 0
Picard iteration (H) : 1 residual = 0
dimensions      [0 0 0 0 0 0 0];

internalField   uniform 1858.14;

boundaryField
{
    x0
    {
        type            calculated;
        value           uniform 1858.14;
    }
    x1
    {
        type            calculated;
        value           uniform 1858.14;
    }
    y0
    {
        type            calculated;
        value           uniform 1858.14;
    }
    y1
    {
        type            calculated;
        value           uniform 1858.14;
    }
    z0
    {
        type            empty;
    }
    z1
    {
        type            empty;
    }
}

DILUPBiCG:  Solving for C, Initial residual = 0.0298722, Final residual = 1.07827e-14, No Iterations 1
Concentration Min(C) = 2.35735e-102 Max(C) = 1 dCdTmax = 7.89084e-05 mass(C) = 7.5324e-06 dCmax = 7.88997e-06
Picard iteration (C) : 1 residual = 7.88997e-06
Saturation theta  Min(theta) = 1 Max(theta) = 1
Head pressure h   Min(h) = 0.025 Max(h) = 0.975
Water mass balance (m3/s) : sourceTerm = 0 ; x0 = -0.00500001 ; x1 = 0.00500001 ; y0 = 0 ; y1 = 0 ; 
C mass balance (kg/s) : sourceTerm = 0 ; x0 = -0.00500001 ; x1 = 1.17868e-104 ; y0 = 0 ; y1 = 0 ; 
ExecutionTime = 0.03 s  ClockTime = 0 s

deltaT = 0.0999891 ; dtheta = 0
Time = 1.05453

DICPCG:  Solving for h, Initial residual = 1.50051e-13, Final residual = 1.50051e-13, No Iterations 0
Picard iteration (H) : 1 residual = 0
dimensions      [0 0 0 0 0 0 0];

internalField   uniform 1858.14;

boundaryField
{
    x0
    {
        type            calculated;
        value           uniform 1858.14;
    }
    x1
    {
        type            calculated;
        value           uniform 1858.14;
    }
    y0
    {
        type            calculated;
        value           uniform 1858.14;
    }
    y1
    {
        type            calculated;
        value           uniform 1858.14;
    }
    z0
    {
        type            empty;
    }
    z1
    {
        type            empty;
    }
}

DILUPBiCG:  Solving for C, Initial residual = 0.0268271, Final residual = 9.66903e-15, No Iterations 1
Concentration Min(C) = 8.79641e-102 Max(C) = 1 dCdTmax = 7.8908e-05 mass(C) = 8.32142e-06 dCmax = 7.88994e-06
Picard iteration (C) : 1 residual = 7.88994e-06
Saturation theta  Min(theta) = 1 Max(theta) = 1
Head pressure h   Min(h) = 0.025 Max(h) = 0.975
Water mass balance (m3/s) : sourceTerm = 0 ; x0 = -0.00500001 ; x1 = 0.00500001 ; y0 = 0 ; y1 = 0 ; 
C mass balance (kg/s) : sourceTerm = 0 ; x0 = -0.00500001 ; x1 = 4.39821e-104 ; y0 = 0 ; y1 = 0 ; 
ExecutionTime = 0.03 s  ClockTime = 0 s

deltaT = 0.0999891 ; dtheta = 0
Time = 1.15452

DICPCG:  Solving for h, Initial residual = 1.50051e-13, Final residual = 1.50051e-13, No Iterations 0
Picard iteration (H) : 1 residual = 0
dimensions      [0 0 0 0 0 0 0];

internalField   uniform 1858.14;

boundaryField
{
    x0
    {
        type            calculated;
        value           uniform 1858.14;
    }
    x1
    {
        type            calculated;
        value           uniform 1858.14;
    }
    y0
    {
        type            calculated;
        value           uniform 1858.14;
    }
    y1
    {
        type            calculated;
        value           uniform 1858.14;
    }
    z0
    {
        type            empty;
    }
    z1
    {
        type            empty;
    }
}

DILUPBiCG:  Solving for C, Initial residual = 0.0243454, Final residual = 8.77877e-15, No Iterations 1
Concentration Min(C) = 2.95823e-101 Max(C) = 1 dCdTmax = 7.89077e-05 mass(C) = 9.11045e-06 dCmax = 7.88991e-06
Picard iteration (C) : 1 residual = 7.88991e-06
Saturation theta  Min(theta) = 1 Max(theta) = 1
Head pressure h   Min(h) = 0.025 Max(h) = 0.975
Water mass balance (m3/s) : sourceTerm = 0 ; x0 = -0.00500001 ; x1 = 0.00500001 ; y0 = 0 ; y1 = 0 ; 
C mass balance (kg/s) : sourceTerm = 0 ; x0 = -0.00500001 ; x1 = 1.47912e-103 ; y0 = 0 ; y1 = 0 ; 
ExecutionTime = 0.04 s  ClockTime = 0 s

deltaT = 0.0999891 ; dtheta = 0
Time = 1.25451

DICPCG:  Solving for h, Initial residual = 1.50051e-13, Final residual = 1.50051e-13, No Iterations 0
Picard iteration (H) : 1 residual = 0
dimensions      [0 0 0 0 0 0 0];

internalField   uniform 1858.14;

boundaryField
{
    x0
    {
        type            calculated;
        value           uniform 1858.14;
    }
    x1
    {
        type            calculated;
        value           uniform 1858.14;
    }
    y0
    {
        type            calculated;
        value           uniform 1858.14;
    }
    y1
    {
        type            calculated;
        value           uniform 1858.14;
    }
    z0
    {
        type            empty;
    }
    z1
    {
        type            empty;
    }
}

DILUPBiCG:  Solving for C, Initial residual = 0.0222839, Final residual = 8.03061e-15, No Iterations 1
Concentration Min(C) = 9.1304e-101 Max(C) = 1 dCdTmax = 7.89074e-05 mass(C) = 9.89948e-06 dCmax = 7.88988e-06
Picard iteration (C) : 1 residual = 7.88988e-06
Saturation theta  Min(theta) = 1 Max(theta) = 1
Head pressure h   Min(h) = 0.025 Max(h) = 0.975
Water mass balance (m3/s) : sourceTerm = 0 ; x0 = -0.00500001 ; x1 = 0.00500001 ; y0 = 0 ; y1 = 0 ; 
C mass balance (kg/s) : sourceTerm = 0 ; x0 = -0.00500001 ; x1 = 4.56521e-103 ; y0 = 0 ; y1 = 0 ; 
ExecutionTime = 0.04 s  ClockTime = 0 s

deltaT = 0.0999891 ; dtheta = 0
Time = 1.35449

DICPCG:  Solving for h, Initial residual = 1.50051e-13, Final residual = 1.50051e-13, No Iterations 0
Picard iteration (H) : 1 residual = 0
dimensions      [0 0 0 0 0 0 0];

internalField   uniform 1858.14;

boundaryField
{
    x0
    {
        type            calculated;
        value           uniform 1858.14;
    }
    x1
    {
        type            calculated;
        value           uniform 1858.14;
    }
    y0
    {
        type            calculated;
        value           uniform 1858.14;
    }
    y1
    {
        type            calculated;
        value           uniform 1858.14;
    }
    z0
    {
        type            empty;
    }
    z1
    {
        type            empty;
    }
}

DILUPBiCG:  Solving for C, Initial residual = 0.0205443, Final residual = 7.40503e-15, No Iterations 1
Concentration Min(C) = 2.62093e-100 Max(C) = 1 dCdTmax = 7.89071e-05 mass(C) = 1.06885e-05 dCmax = 7.88984e-06
Picard iteration (C) : 1 residual = 7.88984e-06
Saturation theta  Min(theta) = 1 Max(theta) = 1
Head pressure h   Min(h) = 0.025 Max(h) = 0.975
Water mass balance (m3/s) : sourceTerm = 0 ; x0 = -0.00500001 ; x1 = 0.00500001 ; y0 = 0 ; y1 = 0 ; 
C mass balance (kg/s) : sourceTerm = 0 ; x0 = -0.00500001 ; x1 = 1.31047e-102 ; y0 = 0 ; y1 = 0 ; 
ExecutionTime = 0.04 s  ClockTime = 0 s

deltaT = 0.0999891 ; dtheta = 0
Time = 1.45448

DICPCG:  Solving for h, Initial residual = 1.50051e-13, Final residual = 1.50051e-13, No Iterations 0
Picard iteration (H) : 1 residual = 0
dimensions      [0 0 0 0 0 0 0];

internalField   uniform 1858.14;

boundaryField
{
    x0
    {
        type            calculated;
        value           uniform 1858.14;
    }
    x1
    {
        type            calculated;
        value           uniform 1858.14;
    }
    y0
    {
        type            calculated;
        value           uniform 1858.14;
    }
    y1
    {
        type            calculated;
        value           uniform 1858.14;
    }
    z0
    {
        type            empty;
    }
    z1
    {
        type            empty;
    }
}

DILUPBiCG:  Solving for C, Initial residual = 0.0190567, Final residual = 6.87047e-15, No Iterations 1
Concentration Min(C) = 7.0685e-100 Max(C) = 1 dCdTmax = 7.89067e-05 mass(C) = 1.14775e-05 dCmax = 7.88981e-06
Picard iteration (C) : 1 residual = 7.88981e-06
Saturation theta  Min(theta) = 1 Max(theta) = 1
Head pressure h   Min(h) = 0.025 Max(h) = 0.975
Water mass balance (m3/s) : sourceTerm = 0 ; x0 = -0.00500001 ; x1 = 0.00500001 ; y0 = 0 ; y1 = 0 ; 
C mass balance (kg/s) : sourceTerm = 0 ; x0 = -0.00500001 ; x1 = 3.53426e-102 ; y0 = 0 ; y1 = 0 ; 
ExecutionTime = 0.04 s  ClockTime = 0 s

deltaT = 0.0999891 ; dtheta = 0
Time = 1.55447

DICPCG:  Solving for h, Initial residual = 1.50051e-13, Final residual = 1.50051e-13, No Iterations 0
Picard iteration (H) : 1 residual = 0
dimensions      [0 0 0 0 0 0 0];

internalField   uniform 1858.14;

boundaryField
{
    x0
    {
        type            calculated;
        value           uniform 1858.14;
    }
    x1
    {
        type            calculated;
        value           uniform 1858.14;
    }
    y0
    {
        type            calculated;
        value           uniform 1858.14;
    }
    y1
    {
        type            calculated;
        value           uniform 1858.14;
    }
    z0
    {
        type            empty;
    }
    z1
    {
        type            empty;
    }
}

DILUPBiCG:  Solving for C, Initial residual = 0.0177699, Final residual = 6.40695e-15, No Iterations 1
Concentration Min(C) = 1.80532e-99 Max(C) = 1 dCdTmax = 7.89064e-05 mass(C) = 1.22666e-05 dCmax = 7.88978e-06
Picard iteration (C) : 1 residual = 7.88978e-06
Saturation theta  Min(theta) = 1 Max(theta) = 1
Head pressure h   Min(h) = 0.025 Max(h) = 0.975
Water mass balance (m3/s) : sourceTerm = 0 ; x0 = -0.00500001 ; x1 = 0.00500001 ; y0 = 0 ; y1 = 0 ; 
C mass balance (kg/s) : sourceTerm = 0 ; x0 = -0.00500001 ; x1 = 9.02664e-102 ; y0 = 0 ; y1 = 0 ; 
ExecutionTime = 0.04 s  ClockTime = 0 s

deltaT = 0.0999891 ; dtheta = 0
Time = 1.65446

DICPCG:  Solving for h, Initial residual = 1.50051e-13, Final residual = 1.50051e-13, No Iterations 0
Picard iteration (H) : 1 residual = 0
dimensions      [0 0 0 0 0 0 0];

internalField   uniform 1858.14;

boundaryField
{
    x0
    {
        type            calculated;
        value           uniform 1858.14;
    }
    x1
    {
        type            calculated;
        value           uniform 1858.14;
    }
    y0
    {
        type            calculated;
        value           uniform 1858.14;
    }
    y1
    {
        type            calculated;
        value           uniform 1858.14;
    }
    z0
    {
        type            empty;
    }
    z1
    {
        type            empty;
    }
}

DILUPBiCG:  Solving for C, Initial residual = 0.016646, Final residual = 6.00386e-15, No Iterations 1
Concentration Min(C) = 4.39453e-99 Max(C) = 1 dCdTmax = 7.89061e-05 mass(C) = 1.30556e-05 dCmax = 7.88975e-06
Picard iteration (C) : 1 residual = 7.88975e-06
Saturation theta  Min(theta) = 1 Max(theta) = 1
Head pressure h   Min(h) = 0.025 Max(h) = 0.975
Water mass balance (m3/s) : sourceTerm = 0 ; x0 = -0.00500001 ; x1 = 0.00500001 ; y0 = 0 ; y1 = 0 ; 
C mass balance (kg/s) : sourceTerm = 0 ; x0 = -0.00500001 ; x1 = 2.19727e-101 ; y0 = 0 ; y1 = 0 ; 
ExecutionTime = 0.04 s  ClockTime = 0 s

deltaT = 0.0999891 ; dtheta = 0
Time = 1.75445

DICPCG:  Solving for h, Initial residual = 1.50051e-13, Final residual = 1.50051e-13, No Iterations 0
Picard iteration (H) : 1 residual = 0
dimensions      [0 0 0 0 0 0 0];

internalField   uniform 1858.14;

boundaryField
{
    x0
    {
        type            calculated;
        value           uniform 1858.14;
    }
    x1
    {
        type            calculated;
        value           uniform 1858.14;
    }
    y0
    {
        type            calculated;
        value           uniform 1858.14;
    }
    y1
    {
        type            calculated;
        value           uniform 1858.14;
    }
    z0
    {
        type            empty;
    }
    z1
    {
        type            empty;
    }
}

DILUPBiCG:  Solving for C, Initial residual = 0.0156557, Final residual = 5.6423e-15, No Iterations 1
Concentration Min(C) = 1.02487e-98 Max(C) = 1 dCdTmax = 7.89058e-05 mass(C) = 1.38446e-05 dCmax = 7.88971e-06
Picard iteration (C) : 1 residual = 7.88971e-06
Saturation theta  Min(theta) = 1 Max(theta) = 1
Head pressure h   Min(h) = 0.025 Max(h) = 0.975
Water mass balance (m3/s) : sourceTerm = 0 ; x0 = -0.00500001 ; x1 = 0.00500001 ; y0 = 0 ; y1 = 0 ; 
C mass balance (kg/s) : sourceTerm = 0 ; x0 = -0.00500001 ; x1 = 5.12438e-101 ; y0 = 0 ; y1 = 0 ; 
ExecutionTime = 0.05 s  ClockTime = 0 s

deltaT = 0.0999891 ; dtheta = 0
Time = 1.85444

DICPCG:  Solving for h, Initial residual = 1.50051e-13, Final residual = 1.50051e-13, No Iterations 0
Picard iteration (H) : 1 residual = 0
dimensions      [0 0 0 0 0 0 0];

internalField   uniform 1858.14;

boundaryField
{
    x0
    {
        type            calculated;
        value           uniform 1858.14;
    }
    x1
    {
        type            calculated;
        value           uniform 1858.14;
    }
    y0
    {
        type            calculated;
        value           uniform 1858.14;
    }
    y1
    {
        type            calculated;
        value           uniform 1858.14;
    }
    z0
    {
        type            empty;
    }
    z1
    {
        type            empty;
    }
}

DILUPBiCG:  Solving for C, Initial residual = 0.0147767, Final residual = 5.32806e-15, No Iterations 1
Concentration Min(C) = 2.29996e-98 Max(C) = 1 dCdTmax = 7.89054e-05 mass(C) = 1.46336e-05 dCmax = 7.88968e-06
Picard iteration (C) : 1 residual = 7.88968e-06
Saturation theta  Min(theta) = 1 Max(theta) = 1
Head pressure h   Min(h) = 0.025 Max(h) = 0.975
Water mass balance (m3/s) : sourceTerm = 0 ; x0 = -0.00500001 ; x1 = 0.00500001 ; y0 = 0 ; y1 = 0 ; 
C mass balance (kg/s) : sourceTerm = 0 ; x0 = -0.00500001 ; x1 = 1.14998e-100 ; y0 = 0 ; y1 = 0 ; 
ExecutionTime = 0.05 s  ClockTime = 0 s

deltaT = 0.0999891 ; dtheta = 0
Time = 1.95443

DICPCG:  Solving for h, Initial residual = 1.50051e-13, Final residual = 1.50051e-13, No Iterations 0
Picard iteration (H) : 1 residual = 0
dimensions      [0 0 0 0 0 0 0];

internalField   uniform 1858.14;

boundaryField
{
    x0
    {
        type            calculated;
        value           uniform 1858.14;
    }
    x1
    {
        type            calculated;
        value           uniform 1858.14;
    }
    y0
    {
        type            calculated;
        value           uniform 1858.14;
    }
    y1
    {
        type            calculated;
        value           uniform 1858.14;
    }
    z0
    {
        type            empty;
    }
    z1
    {
        type            empty;
    }
}

DILUPBiCG:  Solving for C, Initial residual = 0.0139911, Final residual = 5.04662e-15, No Iterations 1
Concentration Min(C) = 4.98489e-98 Max(C) = 1 dCdTmax = 7.89051e-05 mass(C) = 1.54227e-05 dCmax = 7.88965e-06
Picard iteration (C) : 1 residual = 7.88965e-06
Saturation theta  Min(theta) = 1 Max(theta) = 1
Head pressure h   Min(h) = 0.025 Max(h) = 0.975
Water mass balance (m3/s) : sourceTerm = 0 ; x0 = -0.00500001 ; x1 = 0.00500001 ; y0 = 0 ; y1 = 0 ; 
C mass balance (kg/s) : sourceTerm = 0 ; x0 = -0.00500001 ; x1 = 2.49245e-100 ; y0 = 0 ; y1 = 0 ; 
ExecutionTime = 0.05 s  ClockTime = 0 s

deltaT = 0.0999891 ; dtheta = 0
Time = 2.05442

DICPCG:  Solving for h, Initial residual = 1.50051e-13, Final residual = 1.50051e-13, No Iterations 0
Picard iteration (H) : 1 residual = 0
dimensions      [0 0 0 0 0 0 0];

internalField   uniform 1858.14;

boundaryField
{
    x0
    {
        type            calculated;
        value           uniform 1858.14;
    }
    x1
    {
        type            calculated;
        value           uniform 1858.14;
    }
    y0
    {
        type            calculated;
        value           uniform 1858.14;
    }
    y1
    {
        type            calculated;
        value           uniform 1858.14;
    }
    z0
    {
        type            empty;
    }
    z1
    {
        type            empty;
    }
}

DILUPBiCG:  Solving for C, Initial residual = 0.0132849, Final residual = 4.79015e-15, No Iterations 1
Concentration Min(C) = 1.04674e-97 Max(C) = 1 dCdTmax = 7.89048e-05 mass(C) = 1.62117e-05 dCmax = 7.88961e-06
Picard iteration (C) : 1 residual = 7.88961e-06
Saturation theta  Min(theta) = 1 Max(theta) = 1
Head pressure h   Min(h) = 0.025 Max(h) = 0.975
Water mass balance (m3/s) : sourceTerm = 0 ; x0 = -0.00500001 ; x1 = 0.00500001 ; y0 = 0 ; y1 = 0 ; 
C mass balance (kg/s) : sourceTerm = 0 ; x0 = -0.00500001 ; x1 = 5.23372e-100 ; y0 = 0 ; y1 = 0 ; 
ExecutionTime = 0.05 s  ClockTime = 0 s

deltaT = 0.0999891 ; dtheta = 0
Time = 2.15441

DICPCG:  Solving for h, Initial residual = 1.50051e-13, Final residual = 1.50051e-13, No Iterations 0
Picard iteration (H) : 1 residual = 0
dimensions      [0 0 0 0 0 0 0];

internalField   uniform 1858.14;

boundaryField
{
    x0
    {
        type            calculated;
        value           uniform 1858.14;
    }
    x1
    {
        type            calculated;
        value           uniform 1858.14;
    }
    y0
    {
        type            calculated;
        value           uniform 1858.14;
    }
    y1
    {
        type            calculated;
        value           uniform 1858.14;
    }
    z0
    {
        type            empty;
    }
    z1
    {
        type            empty;
    }
}

DILUPBiCG:  Solving for C, Initial residual = 0.0126465, Final residual = 4.55696e-15, No Iterations 1
Concentration Min(C) = 2.13523e-97 Max(C) = 1 dCdTmax = 7.89044e-05 mass(C) = 1.70007e-05 dCmax = 7.88958e-06
Picard iteration (C) : 1 residual = 7.88958e-06
Saturation theta  Min(theta) = 1 Max(theta) = 1
Head pressure h   Min(h) = 0.025 Max(h) = 0.975
Water mass balance (m3/s) : sourceTerm = 0 ; x0 = -0.00500001 ; x1 = 0.00500001 ; y0 = 0 ; y1 = 0 ; 
C mass balance (kg/s) : sourceTerm = 0 ; x0 = -0.00500001 ; x1 = 1.06761e-99 ; y0 = 0 ; y1 = 0 ; 
ExecutionTime = 0.05 s  ClockTime = 0 s

deltaT = 0.0999891 ; dtheta = 0
Time = 2.2544

DICPCG:  Solving for h, Initial residual = 1.50051e-13, Final residual = 1.50051e-13, No Iterations 0
Picard iteration (H) : 1 residual = 0
dimensions      [0 0 0 0 0 0 0];

internalField   uniform 1858.14;

boundaryField
{
    x0
    {
        type            calculated;
        value           uniform 1858.14;
    }
    x1
    {
        type            calculated;
        value           uniform 1858.14;
    }
    y0
    {
        type            calculated;
        value           uniform 1858.14;
    }
    y1
    {
        type            calculated;
        value           uniform 1858.14;
    }
    z0
    {
        type            empty;
    }
    z1
    {
        type            empty;
    }
}

DILUPBiCG:  Solving for C, Initial residual = 0.0120667, Final residual = 4.35246e-15, No Iterations 1
Concentration Min(C) = 4.24119e-97 Max(C) = 1 dCdTmax = 7.89041e-05 mass(C) = 1.77897e-05 dCmax = 7.88955e-06
Picard iteration (C) : 1 residual = 7.88955e-06
Saturation theta  Min(theta) = 1 Max(theta) = 1
Head pressure h   Min(h) = 0.025 Max(h) = 0.975
Water mass balance (m3/s) : sourceTerm = 0 ; x0 = -0.00500001 ; x1 = 0.00500001 ; y0 = 0 ; y1 = 0 ; 
C mass balance (kg/s) : sourceTerm = 0 ; x0 = -0.00500001 ; x1 = 2.1206e-99 ; y0 = 0 ; y1 = 0 ; 
ExecutionTime = 0.05 s  ClockTime = 0 s

deltaT = 0.0999891 ; dtheta = 0
Time = 2.35439

DICPCG:  Solving for h, Initial residual = 1.50051e-13, Final residual = 1.50051e-13, No Iterations 0
Picard iteration (H) : 1 residual = 0
dimensions      [0 0 0 0 0 0 0];

internalField   uniform 1858.14;

boundaryField
{
    x0
    {
        type            calculated;
        value           uniform 1858.14;
    }
    x1
    {
        type            calculated;
        value           uniform 1858.14;
    }
    y0
    {
        type            calculated;
        value           uniform 1858.14;
    }
    y1
    {
        type            calculated;
        value           uniform 1858.14;
    }
    z0
    {
        type            empty;
    }
    z1
    {
        type            empty;
    }
}

DILUPBiCG:  Solving for C, Initial residual = 0.0115377, Final residual = 4.15991e-15, No Iterations 1
Concentration Min(C) = 8.21988e-97 Max(C) = 1 dCdTmax = 7.89038e-05 mass(C) = 1.85788e-05 dCmax = 7.88952e-06
Picard iteration (C) : 1 residual = 7.88952e-06
Saturation theta  Min(theta) = 1 Max(theta) = 1
Head pressure h   Min(h) = 0.025 Max(h) = 0.975
Water mass balance (m3/s) : sourceTerm = 0 ; x0 = -0.00500001 ; x1 = 0.00500001 ; y0 = 0 ; y1 = 0 ; 
C mass balance (kg/s) : sourceTerm = 0 ; x0 = -0.00500001 ; x1 = 4.10995e-99 ; y0 = 0 ; y1 = 0 ; 
ExecutionTime = 0.05 s  ClockTime = 0 s

deltaT = 0.0999891 ; dtheta = 0
Time = 2.45437

DICPCG:  Solving for h, Initial residual = 1.50051e-13, Final residual = 1.50051e-13, No Iterations 0
Picard iteration (H) : 1 residual = 0
dimensions      [0 0 0 0 0 0 0];

internalField   uniform 1858.14;

boundaryField
{
    x0
    {
        type            calculated;
        value           uniform 1858.14;
    }
    x1
    {
        type            calculated;
        value           uniform 1858.14;
    }
    y0
    {
        type            calculated;
        value           uniform 1858.14;
    }
    y1
    {
        type            calculated;
        value           uniform 1858.14;
    }
    z0
    {
        type            empty;
    }
    z1
    {
        type            empty;
    }
}

DILUPBiCG:  Solving for C, Initial residual = 0.0110531, Final residual = 3.98496e-15, No Iterations 1
Concentration Min(C) = 1.55727e-96 Max(C) = 1 dCdTmax = 7.89035e-05 mass(C) = 1.93678e-05 dCmax = 7.88948e-06
Picard iteration (C) : 1 residual = 7.88948e-06
Saturation theta  Min(theta) = 1 Max(theta) = 1
Head pressure h   Min(h) = 0.025 Max(h) = 0.975
Water mass balance (m3/s) : sourceTerm = 0 ; x0 = -0.00500001 ; x1 = 0.00500001 ; y0 = 0 ; y1 = 0 ; 
C mass balance (kg/s) : sourceTerm = 0 ; x0 = -0.00500001 ; x1 = 7.78637e-99 ; y0 = 0 ; y1 = 0 ; 
ExecutionTime = 0.06 s  ClockTime = 0 s

deltaT = 0.0999891 ; dtheta = 0
Time = 2.55436

DICPCG:  Solving for h, Initial residual = 1.50051e-13, Final residual = 1.50051e-13, No Iterations 0
Picard iteration (H) : 1 residual = 0
dimensions      [0 0 0 0 0 0 0];

internalField   uniform 1858.14;

boundaryField
{
    x0
    {
        type            calculated;
        value           uniform 1858.14;
    }
    x1
    {
        type            calculated;
        value           uniform 1858.14;
    }
    y0
    {
        type            calculated;
        value           uniform 1858.14;
    }
    y1
    {
        type            calculated;
        value           uniform 1858.14;
    }
    z0
    {
        type            empty;
    }
    z1
    {
        type            empty;
    }
}

DILUPBiCG:  Solving for C, Initial residual = 0.0106076, Final residual = 3.82779e-15, No Iterations 1
Concentration Min(C) = 2.88857e-96 Max(C) = 1 dCdTmax = 7.89031e-05 mass(C) = 2.01568e-05 dCmax = 7.88945e-06
Picard iteration (C) : 1 residual = 7.88945e-06
Saturation theta  Min(theta) = 1 Max(theta) = 1
Head pressure h   Min(h) = 0.025 Max(h) = 0.975
Water mass balance (m3/s) : sourceTerm = 0 ; x0 = -0.00500001 ; x1 = 0.00500001 ; y0 = 0 ; y1 = 0 ; 
C mass balance (kg/s) : sourceTerm = 0 ; x0 = -0.00500001 ; x1 = 1.44429e-98 ; y0 = 0 ; y1 = 0 ; 
ExecutionTime = 0.06 s  ClockTime = 0 s

deltaT = 0.0999891 ; dtheta = 0
Time = 2.65435

DICPCG:  Solving for h, Initial residual = 1.50051e-13, Final residual = 1.50051e-13, No Iterations 0
Picard iteration (H) : 1 residual = 0
dimensions      [0 0 0 0 0 0 0];

internalField   uniform 1858.14;

boundaryField
{
    x0
    {
        type            calculated;
        value           uniform 1858.14;
    }
    x1
    {
        type            calculated;
        value           uniform 1858.14;
    }
    y0
    {
        type            calculated;
        value           uniform 1858.14;
    }
    y1
    {
        type            calculated;
        value           uniform 1858.14;
    }
    z0
    {
        type            empty;
    }
    z1
    {
        type            empty;
    }
}

DILUPBiCG:  Solving for C, Initial residual = 0.0101966, Final residual = 3.67463e-15, No Iterations 1
Concentration Min(C) = 5.25344e-96 Max(C) = 1 dCdTmax = 7.89028e-05 mass(C) = 2.09458e-05 dCmax = 7.88942e-06
Picard iteration (C) : 1 residual = 7.88942e-06
Saturation theta  Min(theta) = 1 Max(theta) = 1
Head pressure h   Min(h) = 0.025 Max(h) = 0.975
Water mass balance (m3/s) : sourceTerm = 0 ; x0 = -0.00500001 ; x1 = 0.00500001 ; y0 = 0 ; y1 = 0 ; 
C mass balance (kg/s) : sourceTerm = 0 ; x0 = -0.00500001 ; x1 = 2.62672e-98 ; y0 = 0 ; y1 = 0 ; 
ExecutionTime = 0.06 s  ClockTime = 0 s

deltaT = 0.0999891 ; dtheta = 0
Time = 2.75434

DICPCG:  Solving for h, Initial residual = 1.50051e-13, Final residual = 1.50051e-13, No Iterations 0
Picard iteration (H) : 1 residual = 0
dimensions      [0 0 0 0 0 0 0];

internalField   uniform 1858.14;

boundaryField
{
    x0
    {
        type            calculated;
        value           uniform 1858.14;
    }
    x1
    {
        type            calculated;
        value           uniform 1858.14;
    }
    y0
    {
        type            calculated;
        value           uniform 1858.14;
    }
    y1
    {
        type            calculated;
        value           uniform 1858.14;
    }
    z0
    {
        type            empty;
    }
    z1
    {
        type            empty;
    }
}

DILUPBiCG:  Solving for C, Initial residual = 0.00981632, Final residual = 3.53843e-15, No Iterations 1
Concentration Min(C) = 9.38009e-96 Max(C) = 1 dCdTmax = 7.89025e-05 mass(C) = 2.17349e-05 dCmax = 7.88939e-06
Picard iteration (C) : 1 residual = 7.88939e-06
Saturation theta  Min(theta) = 1 Max(theta) = 1
Head pressure h   Min(h) = 0.025 Max(h) = 0.975
Water mass balance (m3/s) : sourceTerm = 0 ; x0 = -0.00500001 ; x1 = 0.00500001 ; y0 = 0 ; y1 = 0 ; 
C mass balance (kg/s) : sourceTerm = 0 ; x0 = -0.00500001 ; x1 = 4.69005e-98 ; y0 = 0 ; y1 = 0 ; 
ExecutionTime = 0.06 s  ClockTime = 0 s

deltaT = 0.0999891 ; dtheta = 0
Time = 2.85433

DICPCG:  Solving for h, Initial residual = 1.50051e-13, Final residual = 1.50051e-13, No Iterations 0
Picard iteration (H) : 1 residual = 0
dimensions      [0 0 0 0 0 0 0];

internalField   uniform 1858.14;

boundaryField
{
    x0
    {
        type            calculated;
        value           uniform 1858.14;
    }
    x1
    {
        type            calculated;
        value           uniform 1858.14;
    }
    y0
    {
        type            calculated;
        value           uniform 1858.14;
    }
    y1
    {
        type            calculated;
        value           uniform 1858.14;
    }
    z0
    {
        type            empty;
    }
    z1
    {
        type            empty;
    }
}

DILUPBiCG:  Solving for C, Initial residual = 0.00946336, Final residual = 3.41263e-15, No Iterations 1
Concentration Min(C) = 1.64618e-95 Max(C) = 1 dCdTmax = 7.89021e-05 mass(C) = 2.25239e-05 dCmax = 7.88935e-06
Picard iteration (C) : 1 residual = 7.88935e-06
Saturation theta  Min(theta) = 1 Max(theta) = 1
Head pressure h   Min(h) = 0.025 Max(h) = 0.975
Water mass balance (m3/s) : sourceTerm = 0 ; x0 = -0.00500001 ; x1 = 0.00500001 ; y0 = 0 ; y1 = 0 ; 
C mass balance (kg/s) : sourceTerm = 0 ; x0 = -0.00500001 ; x1 = 8.23089e-98 ; y0 = 0 ; y1 = 0 ; 
ExecutionTime = 0.06 s  ClockTime = 0 s

deltaT = 0.0999891 ; dtheta = 0
Time = 2.95432

DICPCG:  Solving for h, Initial residual = 1.50051e-13, Final residual = 1.50051e-13, No Iterations 0
Picard iteration (H) : 1 residual = 0
dimensions      [0 0 0 0 0 0 0];

internalField   uniform 1858.14;

boundaryField
{
    x0
    {
        type            calculated;
        value           uniform 1858.14;
    }
    x1
    {
        type            calculated;
        value           uniform 1858.14;
    }
    y0
    {
        type            calculated;
        value           uniform 1858.14;
    }
    y1
    {
        type            calculated;
        value           uniform 1858.14;
    }
    z0
    {
        type            empty;
    }
    z1
    {
        type            empty;
    }
}

DILUPBiCG:  Solving for C, Initial residual = 0.0091349, Final residual = 3.29141e-15, No Iterations 1
Concentration Min(C) = 2.84254e-95 Max(C) = 1 dCdTmax = 7.89018e-05 mass(C) = 2.33129e-05 dCmax = 7.88932e-06
Picard iteration (C) : 1 residual = 7.88932e-06
Saturation theta  Min(theta) = 1 Max(theta) = 1
Head pressure h   Min(h) = 0.025 Max(h) = 0.975
Water mass balance (m3/s) : sourceTerm = 0 ; x0 = -0.00500001 ; x1 = 0.00500001 ; y0 = 0 ; y1 = 0 ; 
C mass balance (kg/s) : sourceTerm = 0 ; x0 = -0.00500001 ; x1 = 1.42127e-97 ; y0 = 0 ; y1 = 0 ; 
ExecutionTime = 0.06 s  ClockTime = 0 s

deltaT = 0.0999891 ; dtheta = 0
Time = 3.05431

DICPCG:  Solving for h, Initial residual = 1.50051e-13, Final residual = 1.50051e-13, No Iterations 0
Picard iteration (H) : 1 residual = 0
dimensions      [0 0 0 0 0 0 0];

internalField   uniform 1858.14;

boundaryField
{
    x0
    {
        type            calculated;
        value           uniform 1858.14;
    }
    x1
    {
        type            calculated;
        value           uniform 1858.14;
    }
    y0
    {
        type            calculated;
        value           uniform 1858.14;
    }
    y1
    {
        type            calculated;
        value           uniform 1858.14;
    }
    z0
    {
        type            empty;
    }
    z1
    {
        type            empty;
    }
}

DILUPBiCG:  Solving for C, Initial residual = 0.00882847, Final residual = 3.18196e-15, No Iterations 1
Concentration Min(C) = 4.83404e-95 Max(C) = 1 dCdTmax = 7.89015e-05 mass(C) = 2.41019e-05 dCmax = 7.88929e-06
Picard iteration (C) : 1 residual = 7.88929e-06
Saturation theta  Min(theta) = 1 Max(theta) = 1
Head pressure h   Min(h) = 0.025 Max(h) = 0.975
Water mass balance (m3/s) : sourceTerm = 0 ; x0 = -0.00500001 ; x1 = 0.00500001 ; y0 = 0 ; y1 = 0 ; 
C mass balance (kg/s) : sourceTerm = 0 ; x0 = -0.00500001 ; x1 = 2.41702e-97 ; y0 = 0 ; y1 = 0 ; 
ExecutionTime = 0.06 s  ClockTime = 0 s

deltaT = 0.0999891 ; dtheta = 0
Time = 3.1543

DICPCG:  Solving for h, Initial residual = 1.50051e-13, Final residual = 1.50051e-13, No Iterations 0
Picard iteration (H) : 1 residual = 0
dimensions      [0 0 0 0 0 0 0];

internalField   uniform 1858.14;

boundaryField
{
    x0
    {
        type            calculated;
        value           uniform 1858.14;
    }
    x1
    {
        type            calculated;
        value           uniform 1858.14;
    }
    y0
    {
        type            calculated;
        value           uniform 1858.14;
    }
    y1
    {
        type            calculated;
        value           uniform 1858.14;
    }
    z0
    {
        type            empty;
    }
    z1
    {
        type            empty;
    }
}

DILUPBiCG:  Solving for C, Initial residual = 0.00854194, Final residual = 3.07869e-15, No Iterations 1
Concentration Min(C) = 8.10336e-95 Max(C) = 1 dCdTmax = 7.89012e-05 mass(C) = 2.4891e-05 dCmax = 7.88925e-06
Picard iteration (C) : 1 residual = 7.88925e-06
Saturation theta  Min(theta) = 1 Max(theta) = 1
Head pressure h   Min(h) = 0.025 Max(h) = 0.975
Water mass balance (m3/s) : sourceTerm = 0 ; x0 = -0.00500001 ; x1 = 0.00500001 ; y0 = 0 ; y1 = 0 ; 
C mass balance (kg/s) : sourceTerm = 0 ; x0 = -0.00500001 ; x1 = 4.05169e-97 ; y0 = 0 ; y1 = 0 ; 
ExecutionTime = 0.07 s  ClockTime = 0 s

deltaT = 0.0999891 ; dtheta = 0
Time = 3.25429

DICPCG:  Solving for h, Initial residual = 1.50051e-13, Final residual = 1.50051e-13, No Iterations 0
Picard iteration (H) : 1 residual = 0
dimensions      [0 0 0 0 0 0 0];

internalField   uniform 1858.14;

boundaryField
{
    x0
    {
        type            calculated;
        value           uniform 1858.14;
    }
    x1
    {
        type            calculated;
        value           uniform 1858.14;
    }
    y0
    {
        type            calculated;
        value           uniform 1858.14;
    }
    y1
    {
        type            calculated;
        value           uniform 1858.14;
    }
    z0
    {
        type            empty;
    }
    z1
    {
        type            empty;
    }
}

DILUPBiCG:  Solving for C, Initial residual = 0.00827342, Final residual = 2.98603e-15, No Iterations 1
Concentration Min(C) = 1.34003e-94 Max(C) = 1 dCdTmax = 7.89008e-05 mass(C) = 2.568e-05 dCmax = 7.88922e-06
Picard iteration (C) : 1 residual = 7.88922e-06
Saturation theta  Min(theta) = 1 Max(theta) = 1
Head pressure h   Min(h) = 0.025 Max(h) = 0.975
Water mass balance (m3/s) : sourceTerm = 0 ; x0 = -0.00500001 ; x1 = 0.00500001 ; y0 = 0 ; y1 = 0 ; 
C mass balance (kg/s) : sourceTerm = 0 ; x0 = -0.00500001 ; x1 = 6.70016e-97 ; y0 = 0 ; y1 = 0 ; 
ExecutionTime = 0.07 s  ClockTime = 0 s

deltaT = 0.0999891 ; dtheta = 0
Time = 3.35428

DICPCG:  Solving for h, Initial residual = 1.50051e-13, Final residual = 1.50051e-13, No Iterations 0
Picard iteration (H) : 1 residual = 0
dimensions      [0 0 0 0 0 0 0];

internalField   uniform 1858.14;

boundaryField
{
    x0
    {
        type            calculated;
        value           uniform 1858.14;
    }
    x1
    {
        type            calculated;
        value           uniform 1858.14;
    }
    y0
    {
        type            calculated;
        value           uniform 1858.14;
    }
    y1
    {
        type            calculated;
        value           uniform 1858.14;
    }
    z0
    {
        type            empty;
    }
    z1
    {
        type            empty;
    }
}

DILUPBiCG:  Solving for C, Initial residual = 0.00802127, Final residual = 2.89103e-15, No Iterations 1
Concentration Min(C) = 2.18763e-94 Max(C) = 1 dCdTmax = 7.89005e-05 mass(C) = 2.6469e-05 dCmax = 7.88919e-06
Picard iteration (C) : 1 residual = 7.88919e-06
Saturation theta  Min(theta) = 1 Max(theta) = 1
Head pressure h   Min(h) = 0.025 Max(h) = 0.975
Water mass balance (m3/s) : sourceTerm = 0 ; x0 = -0.00500001 ; x1 = 0.00500001 ; y0 = 0 ; y1 = 0 ; 
C mass balance (kg/s) : sourceTerm = 0 ; x0 = -0.00500001 ; x1 = 1.09382e-96 ; y0 = 0 ; y1 = 0 ; 
ExecutionTime = 0.07 s  ClockTime = 0 s

deltaT = 0.0999891 ; dtheta = 0
Time = 3.45427

DICPCG:  Solving for h, Initial residual = 1.50051e-13, Final residual = 1.50051e-13, No Iterations 0
Picard iteration (H) : 1 residual = 0
dimensions      [0 0 0 0 0 0 0];

internalField   uniform 1858.14;

boundaryField
{
    x0
    {
        type            calculated;
        value           uniform 1858.14;
    }
    x1
    {
        type            calculated;
        value           uniform 1858.14;
    }
    y0
    {
        type            calculated;
        value           uniform 1858.14;
    }
    y1
    {
        type            calculated;
        value           uniform 1858.14;
    }
    z0
    {
        type            empty;
    }
    z1
    {
        type            empty;
    }
}

DILUPBiCG:  Solving for C, Initial residual = 0.00778404, Final residual = 2.80856e-15, No Iterations 1
Concentration Min(C) = 3.52804e-94 Max(C) = 1 dCdTmax = 7.89002e-05 mass(C) = 2.7258e-05 dCmax = 7.88916e-06
Picard iteration (C) : 1 residual = 7.88916e-06
Saturation theta  Min(theta) = 1 Max(theta) = 1
Head pressure h   Min(h) = 0.025 Max(h) = 0.975
Water mass balance (m3/s) : sourceTerm = 0 ; x0 = -0.00500001 ; x1 = 0.00500001 ; y0 = 0 ; y1 = 0 ; 
C mass balance (kg/s) : sourceTerm = 0 ; x0 = -0.00500001 ; x1 = 1.76402e-96 ; y0 = 0 ; y1 = 0 ; 
ExecutionTime = 0.07 s  ClockTime = 0 s

deltaT = 0.0999891 ; dtheta = 0
Time = 3.55425

DICPCG:  Solving for h, Initial residual = 1.50051e-13, Final residual = 1.50051e-13, No Iterations 0
Picard iteration (H) : 1 residual = 0
dimensions      [0 0 0 0 0 0 0];

internalField   uniform 1858.14;

boundaryField
{
    x0
    {
        type            calculated;
        value           uniform 1858.14;
    }
    x1
    {
        type            calculated;
        value           uniform 1858.14;
    }
    y0
    {
        type            calculated;
        value           uniform 1858.14;
    }
    y1
    {
        type            calculated;
        value           uniform 1858.14;
    }
    z0
    {
        type            empty;
    }
    z1
    {
        type            empty;
    }
}

DILUPBiCG:  Solving for C, Initial residual = 0.00756044, Final residual = 2.7251e-15, No Iterations 1
Concentration Min(C) = 5.6242e-94 Max(C) = 1 dCdTmax = 7.88999e-05 mass(C) = 2.8047e-05 dCmax = 7.88912e-06
Picard iteration (C) : 1 residual = 7.88912e-06
Saturation theta  Min(theta) = 1 Max(theta) = 1
Head pressure h   Min(h) = 0.025 Max(h) = 0.975
Water mass balance (m3/s) : sourceTerm = 0 ; x0 = -0.00500001 ; x1 = 0.00500001 ; y0 = 0 ; y1 = 0 ; 
C mass balance (kg/s) : sourceTerm = 0 ; x0 = -0.00500001 ; x1 = 2.8121e-96 ; y0 = 0 ; y1 = 0 ; 
ExecutionTime = 0.07 s  ClockTime = 0 s

deltaT = 0.0999891 ; dtheta = 0
Time = 3.65424

DICPCG:  Solving for h, Initial residual = 1.50051e-13, Final residual = 1.50051e-13, No Iterations 0
Picard iteration (H) : 1 residual = 0
dimensions      [0 0 0 0 0 0 0];

internalField   uniform 1858.14;

boundaryField
{
    x0
    {
        type            calculated;
        value           uniform 1858.14;
    }
    x1
    {
        type            calculated;
        value           uniform 1858.14;
    }
    y0
    {
        type            calculated;
        value           uniform 1858.14;
    }
    y1
    {
        type            calculated;
        value           uniform 1858.14;
    }
    z0
    {
        type            empty;
    }
    z1
    {
        type            empty;
    }
}

DILUPBiCG:  Solving for C, Initial residual = 0.00734932, Final residual = 2.649e-15, No Iterations 1
Concentration Min(C) = 8.8675e-94 Max(C) = 1 dCdTmax = 7.88995e-05 mass(C) = 2.88361e-05 dCmax = 7.88909e-06
Picard iteration (C) : 1 residual = 7.88909e-06
Saturation theta  Min(theta) = 1 Max(theta) = 1
Head pressure h   Min(h) = 0.025 Max(h) = 0.975
Water mass balance (m3/s) : sourceTerm = 0 ; x0 = -0.00500001 ; x1 = 0.00500001 ; y0 = 0 ; y1 = 0 ; 
C mass balance (kg/s) : sourceTerm = 0 ; x0 = -0.00500001 ; x1 = 4.43376e-96 ; y0 = 0 ; y1 = 0 ; 
ExecutionTime = 0.08 s  ClockTime = 0 s

deltaT = 0.0999891 ; dtheta = 0
Time = 3.75423

DICPCG:  Solving for h, Initial residual = 1.50051e-13, Final residual = 1.50051e-13, No Iterations 0
Picard iteration (H) : 1 residual = 0
dimensions      [0 0 0 0 0 0 0];

internalField   uniform 1858.14;

boundaryField
{
    x0
    {
        type            calculated;
        value           uniform 1858.14;
    }
    x1
    {
        type            calculated;
        value           uniform 1858.14;
    }
    y0
    {
        type            calculated;
        value           uniform 1858.14;
    }
    y1
    {
        type            calculated;
        value           uniform 1858.14;
    }
    z0
    {
        type            empty;
    }
    z1
    {
        type            empty;
    }
}

DILUPBiCG:  Solving for C, Initial residual = 0.00714968, Final residual = 2.57735e-15, No Iterations 1
Concentration Min(C) = 1.38352e-93 Max(C) = 1 dCdTmax = 7.88992e-05 mass(C) = 2.96251e-05 dCmax = 7.88906e-06
Picard iteration (C) : 1 residual = 7.88906e-06
Saturation theta  Min(theta) = 1 Max(theta) = 1
Head pressure h   Min(h) = 0.025 Max(h) = 0.975
Water mass balance (m3/s) : sourceTerm = 0 ; x0 = -0.00500001 ; x1 = 0.00500001 ; y0 = 0 ; y1 = 0 ; 
C mass balance (kg/s) : sourceTerm = 0 ; x0 = -0.00500001 ; x1 = 6.91759e-96 ; y0 = 0 ; y1 = 0 ; 
ExecutionTime = 0.08 s  ClockTime = 0 s

deltaT = 0.0999891 ; dtheta = 0
Time = 3.85422

DICPCG:  Solving for h, Initial residual = 1.50051e-13, Final residual = 1.50051e-13, No Iterations 0
Picard iteration (H) : 1 residual = 0
dimensions      [0 0 0 0 0 0 0];

internalField   uniform 1858.14;

boundaryField
{
    x0
    {
        type            calculated;
        value           uniform 1858.14;
    }
    x1
    {
        type            calculated;
        value           uniform 1858.14;
    }
    y0
    {
        type            calculated;
        value           uniform 1858.14;
    }
    y1
    {
        type            calculated;
        value           uniform 1858.14;
    }
    z0
    {
        type            empty;
    }
    z1
    {
        type            empty;
    }
}

DILUPBiCG:  Solving for C, Initial residual = 0.0069606, Final residual = 2.51145e-15, No Iterations 1
Concentration Min(C) = 2.13708e-93 Max(C) = 1 dCdTmax = 7.88989e-05 mass(C) = 3.04141e-05 dCmax = 7.88903e-06
Picard iteration (C) : 1 residual = 7.88903e-06
Saturation theta  Min(theta) = 1 Max(theta) = 1
Head pressure h   Min(h) = 0.025 Max(h) = 0.975
Water mass balance (m3/s) : sourceTerm = 0 ; x0 = -0.00500001 ; x1 = 0.00500001 ; y0 = 0 ; y1 = 0 ; 
C mass balance (kg/s) : sourceTerm = 0 ; x0 = -0.00500001 ; x1 = 1.06854e-95 ; y0 = 0 ; y1 = 0 ; 
ExecutionTime = 0.08 s  ClockTime = 0 s

deltaT = 0.0999891 ; dtheta = 0
Time = 3.95421

DICPCG:  Solving for h, Initial residual = 1.50051e-13, Final residual = 1.50051e-13, No Iterations 0
Picard iteration (H) : 1 residual = 0
dimensions      [0 0 0 0 0 0 0];

internalField   uniform 1858.14;

boundaryField
{
    x0
    {
        type            calculated;
        value           uniform 1858.14;
    }
    x1
    {
        type            calculated;
        value           uniform 1858.14;
    }
    y0
    {
        type            calculated;
        value           uniform 1858.14;
    }
    y1
    {
        type            calculated;
        value           uniform 1858.14;
    }
    z0
    {
        type            empty;
    }
    z1
    {
        type            empty;
    }
}

DILUPBiCG:  Solving for C, Initial residual = 0.00678126, Final residual = 2.44498e-15, No Iterations 1
Concentration Min(C) = 3.26972e-93 Max(C) = 1 dCdTmax = 7.88985e-05 mass(C) = 3.12031e-05 dCmax = 7.88899e-06
Picard iteration (C) : 1 residual = 7.88899e-06
Saturation theta  Min(theta) = 1 Max(theta) = 1
Head pressure h   Min(h) = 0.025 Max(h) = 0.975
Water mass balance (m3/s) : sourceTerm = 0 ; x0 = -0.00500001 ; x1 = 0.00500001 ; y0 = 0 ; y1 = 0 ; 
C mass balance (kg/s) : sourceTerm = 0 ; x0 = -0.00500001 ; x1 = 1.63486e-95 ; y0 = 0 ; y1 = 0 ; 
ExecutionTime = 0.08 s  ClockTime = 0 s

deltaT = 0.0999891 ; dtheta = 0
Time = 4.0542

DICPCG:  Solving for h, Initial residual = 1.50051e-13, Final residual = 1.50051e-13, No Iterations 0
Picard iteration (H) : 1 residual = 0
dimensions      [0 0 0 0 0 0 0];

internalField   uniform 1858.14;

boundaryField
{
    x0
    {
        type            calculated;
        value           uniform 1858.14;
    }
    x1
    {
        type            calculated;
        value           uniform 1858.14;
    }
    y0
    {
        type            calculated;
        value           uniform 1858.14;
    }
    y1
    {
        type            calculated;
        value           uniform 1858.14;
    }
    z0
    {
        type            empty;
    }
    z1
    {
        type            empty;
    }
}

DILUPBiCG:  Solving for C, Initial residual = 0.00661093, Final residual = 2.38228e-15, No Iterations 1
Concentration Min(C) = 4.95719e-93 Max(C) = 1 dCdTmax = 7.88982e-05 mass(C) = 3.19922e-05 dCmax = 7.88896e-06
Picard iteration (C) : 1 residual = 7.88896e-06
Saturation theta  Min(theta) = 1 Max(theta) = 1
Head pressure h   Min(h) = 0.025 Max(h) = 0.975
Water mass balance (m3/s) : sourceTerm = 0 ; x0 = -0.00500001 ; x1 = 0.00500001 ; y0 = 0 ; y1 = 0 ; 
C mass balance (kg/s) : sourceTerm = 0 ; x0 = -0.00500001 ; x1 = 2.4786e-95 ; y0 = 0 ; y1 = 0 ; 
ExecutionTime = 0.09 s  ClockTime = 0 s

deltaT = 0.0999891 ; dtheta = 0
Time = 4.15419

DICPCG:  Solving for h, Initial residual = 1.50051e-13, Final residual = 1.50051e-13, No Iterations 0
Picard iteration (H) : 1 residual = 0
dimensions      [0 0 0 0 0 0 0];

internalField   uniform 1858.14;

boundaryField
{
    x0
    {
        type            calculated;
        value           uniform 1858.14;
    }
    x1
    {
        type            calculated;
        value           uniform 1858.14;
    }
    y0
    {
        type            calculated;
        value           uniform 1858.14;
    }
    y1
    {
        type            calculated;
        value           uniform 1858.14;
    }
    z0
    {
        type            empty;
    }
    z1
    {
        type            empty;
    }
}

DILUPBiCG:  Solving for C, Initial residual = 0.00644895, Final residual = 2.32461e-15, No Iterations 1
Concentration Min(C) = 7.45019e-93 Max(C) = 1 dCdTmax = 7.88979e-05 mass(C) = 3.27812e-05 dCmax = 7.88893e-06
Picard iteration (C) : 1 residual = 7.88893e-06
Saturation theta  Min(theta) = 1 Max(theta) = 1
Head pressure h   Min(h) = 0.025 Max(h) = 0.975
Water mass balance (m3/s) : sourceTerm = 0 ; x0 = -0.00500001 ; x1 = 0.00500001 ; y0 = 0 ; y1 = 0 ; 
C mass balance (kg/s) : sourceTerm = 0 ; x0 = -0.00500001 ; x1 = 3.7251e-95 ; y0 = 0 ; y1 = 0 ; 
ExecutionTime = 0.09 s  ClockTime = 0 s

deltaT = 0.0999891 ; dtheta = 0
Time = 4.25418

DICPCG:  Solving for h, Initial residual = 1.50051e-13, Final residual = 1.50051e-13, No Iterations 0
Picard iteration (H) : 1 residual = 0
dimensions      [0 0 0 0 0 0 0];

internalField   uniform 1858.14;

boundaryField
{
    x0
    {
        type            calculated;
        value           uniform 1858.14;
    }
    x1
    {
        type            calculated;
        value           uniform 1858.14;
    }
    y0
    {
        type            calculated;
        value           uniform 1858.14;
    }
    y1
    {
        type            calculated;
        value           uniform 1858.14;
    }
    z0
    {
        type            empty;
    }
    z1
    {
        type            empty;
    }
}

DILUPBiCG:  Solving for C, Initial residual = 0.00629471, Final residual = 2.26833e-15, No Iterations 1
Concentration Min(C) = 1.11036e-92 Max(C) = 1 dCdTmax = 7.88976e-05 mass(C) = 3.35702e-05 dCmax = 7.88889e-06
Picard iteration (C) : 1 residual = 7.88889e-06
Saturation theta  Min(theta) = 1 Max(theta) = 1
Head pressure h   Min(h) = 0.025 Max(h) = 0.975
Water mass balance (m3/s) : sourceTerm = 0 ; x0 = -0.00500001 ; x1 = 0.00500001 ; y0 = 0 ; y1 = 0 ; 
C mass balance (kg/s) : sourceTerm = 0 ; x0 = -0.00500001 ; x1 = 5.55183e-95 ; y0 = 0 ; y1 = 0 ; 
ExecutionTime = 0.09 s  ClockTime = 0 s

deltaT = 0.0999891 ; dtheta = 0
Time = 4.35417

DICPCG:  Solving for h, Initial residual = 1.50051e-13, Final residual = 1.50051e-13, No Iterations 0
Picard iteration (H) : 1 residual = 0
dimensions      [0 0 0 0 0 0 0];

internalField   uniform 1858.14;

boundaryField
{
    x0
    {
        type            calculated;
        value           uniform 1858.14;
    }
    x1
    {
        type            calculated;
        value           uniform 1858.14;
    }
    y0
    {
        type            calculated;
        value           uniform 1858.14;
    }
    y1
    {
        type            calculated;
        value           uniform 1858.14;
    }
    z0
    {
        type            empty;
    }
    z1
    {
        type            empty;
    }
}

DILUPBiCG:  Solving for C, Initial residual = 0.00614769, Final residual = 2.21735e-15, No Iterations 1
Concentration Min(C) = 1.64165e-92 Max(C) = 1 dCdTmax = 7.88972e-05 mass(C) = 3.43592e-05 dCmax = 7.88886e-06
Picard iteration (C) : 1 residual = 7.88886e-06
Saturation theta  Min(theta) = 1 Max(theta) = 1
Head pressure h   Min(h) = 0.025 Max(h) = 0.975
Water mass balance (m3/s) : sourceTerm = 0 ; x0 = -0.00500001 ; x1 = 0.00500001 ; y0 = 0 ; y1 = 0 ; 
C mass balance (kg/s) : sourceTerm = 0 ; x0 = -0.00500001 ; x1 = 8.20828e-95 ; y0 = 0 ; y1 = 0 ; 
ExecutionTime = 0.09 s  ClockTime = 0 s

deltaT = 0.0999891 ; dtheta = 0
Time = 4.45416

DICPCG:  Solving for h, Initial residual = 1.50051e-13, Final residual = 1.50051e-13, No Iterations 0
Picard iteration (H) : 1 residual = 0
dimensions      [0 0 0 0 0 0 0];

internalField   uniform 1858.14;

boundaryField
{
    x0
    {
        type            calculated;
        value           uniform 1858.14;
    }
    x1
    {
        type            calculated;
        value           uniform 1858.14;
    }
    y0
    {
        type            calculated;
        value           uniform 1858.14;
    }
    y1
    {
        type            calculated;
        value           uniform 1858.14;
    }
    z0
    {
        type            empty;
    }
    z1
    {
        type            empty;
    }
}

DILUPBiCG:  Solving for C, Initial residual = 0.00600737, Final residual = 2.1657e-15, No Iterations 1
Concentration Min(C) = 2.40855e-92 Max(C) = 1 dCdTmax = 7.88969e-05 mass(C) = 3.51482e-05 dCmax = 7.88883e-06
Picard iteration (C) : 1 residual = 7.88883e-06
Saturation theta  Min(theta) = 1 Max(theta) = 1
Head pressure h   Min(h) = 0.025 Max(h) = 0.975
Water mass balance (m3/s) : sourceTerm = 0 ; x0 = -0.00500001 ; x1 = 0.00500001 ; y0 = 0 ; y1 = 0 ; 
C mass balance (kg/s) : sourceTerm = 0 ; x0 = -0.00500001 ; x1 = 1.20428e-94 ; y0 = 0 ; y1 = 0 ; 
ExecutionTime = 0.09 s  ClockTime = 0 s

deltaT = 0.0999891 ; dtheta = 0
Time = 4.55415

DICPCG:  Solving for h, Initial residual = 1.50051e-13, Final residual = 1.50051e-13, No Iterations 0
Picard iteration (H) : 1 residual = 0
dimensions      [0 0 0 0 0 0 0];

internalField   uniform 1858.14;

boundaryField
{
    x0
    {
        type            calculated;
        value           uniform 1858.14;
    }
    x1
    {
        type            calculated;
        value           uniform 1858.14;
    }
    y0
    {
        type            calculated;
        value           uniform 1858.14;
    }
    y1
    {
        type            calculated;
        value           uniform 1858.14;
    }
    z0
    {
        type            empty;
    }
    z1
    {
        type            empty;
    }
}

DILUPBiCG:  Solving for C, Initial residual = 0.00587332, Final residual = 2.11686e-15, No Iterations 1
Concentration Min(C) = 3.50767e-92 Max(C) = 1 dCdTmax = 7.88966e-05 mass(C) = 3.59373e-05 dCmax = 7.8888e-06
Picard iteration (C) : 1 residual = 7.8888e-06
Saturation theta  Min(theta) = 1 Max(theta) = 1
Head pressure h   Min(h) = 0.025 Max(h) = 0.975
Water mass balance (m3/s) : sourceTerm = 0 ; x0 = -0.00500001 ; x1 = 0.00500001 ; y0 = 0 ; y1 = 0 ; 
C mass balance (kg/s) : sourceTerm = 0 ; x0 = -0.00500001 ; x1 = 1.75384e-94 ; y0 = 0 ; y1 = 0 ; 
ExecutionTime = 0.09 s  ClockTime = 0 s

deltaT = 0.0999891 ; dtheta = 0
Time = 4.65413

DICPCG:  Solving for h, Initial residual = 1.50051e-13, Final residual = 1.50051e-13, No Iterations 0
Picard iteration (H) : 1 residual = 0
dimensions      [0 0 0 0 0 0 0];

internalField   uniform 1858.14;

boundaryField
{
    x0
    {
        type            calculated;
        value           uniform 1858.14;
    }
    x1
    {
        type            calculated;
        value           uniform 1858.14;
    }
    y0
    {
        type            calculated;
        value           uniform 1858.14;
    }
    y1
    {
        type            calculated;
        value           uniform 1858.14;
    }
    z0
    {
        type            empty;
    }
    z1
    {
        type            empty;
    }
}

DILUPBiCG:  Solving for C, Initial residual = 0.00574512, Final residual = 2.0709e-15, No Iterations 1
Concentration Min(C) = 5.0722e-92 Max(C) = 1 dCdTmax = 7.88963e-05 mass(C) = 3.67263e-05 dCmax = 7.88876e-06
Picard iteration (C) : 1 residual = 7.88876e-06
Saturation theta  Min(theta) = 1 Max(theta) = 1
Head pressure h   Min(h) = 0.025 Max(h) = 0.975
Water mass balance (m3/s) : sourceTerm = 0 ; x0 = -0.00500001 ; x1 = 0.00500001 ; y0 = 0 ; y1 = 0 ; 
C mass balance (kg/s) : sourceTerm = 0 ; x0 = -0.00500001 ; x1 = 2.53611e-94 ; y0 = 0 ; y1 = 0 ; 
ExecutionTime = 0.09 s  ClockTime = 0 s

deltaT = 0.0999891 ; dtheta = 0
Time = 4.75412

DICPCG:  Solving for h, Initial residual = 1.50051e-13, Final residual = 1.50051e-13, No Iterations 0
Picard iteration (H) : 1 residual = 0
dimensions      [0 0 0 0 0 0 0];

internalField   uniform 1858.14;

boundaryField
{
    x0
    {
        type            calculated;
        value           uniform 1858.14;
    }
    x1
    {
        type            calculated;
        value           uniform 1858.14;
    }
    y0
    {
        type            calculated;
        value           uniform 1858.14;
    }
    y1
    {
        type            calculated;
        value           uniform 1858.14;
    }
    z0
    {
        type            empty;
    }
    z1
    {
        type            empty;
    }
}

DILUPBiCG:  Solving for C, Initial residual = 0.0056224, Final residual = 2.02618e-15, No Iterations 1
Concentration Min(C) = 7.28461e-92 Max(C) = 1 dCdTmax = 7.88959e-05 mass(C) = 3.75153e-05 dCmax = 7.88873e-06
Picard iteration (C) : 1 residual = 7.88873e-06
Saturation theta  Min(theta) = 1 Max(theta) = 1
Head pressure h   Min(h) = 0.025 Max(h) = 0.975
Water mass balance (m3/s) : sourceTerm = 0 ; x0 = -0.00500001 ; x1 = 0.00500001 ; y0 = 0 ; y1 = 0 ; 
C mass balance (kg/s) : sourceTerm = 0 ; x0 = -0.00500001 ; x1 = 3.64231e-94 ; y0 = 0 ; y1 = 0 ; 
ExecutionTime = 0.1 s  ClockTime = 0 s

deltaT = 0.0999891 ; dtheta = 0
Time = 4.85411

DICPCG:  Solving for h, Initial residual = 1.50051e-13, Final residual = 1.50051e-13, No Iterations 0
Picard iteration (H) : 1 residual = 0
dimensions      [0 0 0 0 0 0 0];

internalField   uniform 1858.14;

boundaryField
{
    x0
    {
        type            calculated;
        value           uniform 1858.14;
    }
    x1
    {
        type            calculated;
        value           uniform 1858.14;
    }
    y0
    {
        type            calculated;
        value           uniform 1858.14;
    }
    y1
    {
        type            calculated;
        value           uniform 1858.14;
    }
    z0
    {
        type            empty;
    }
    z1
    {
        type            empty;
    }
}

DILUPBiCG:  Solving for C, Initial residual = 0.00550481, Final residual = 1.98464e-15, No Iterations 1
Concentration Min(C) = 1.03934e-91 Max(C) = 1 dCdTmax = 7.88956e-05 mass(C) = 3.83043e-05 dCmax = 7.8887e-06
Picard iteration (C) : 1 residual = 7.8887e-06
Saturation theta  Min(theta) = 1 Max(theta) = 1
Head pressure h   Min(h) = 0.025 Max(h) = 0.975
Water mass balance (m3/s) : sourceTerm = 0 ; x0 = -0.00500001 ; x1 = 0.00500001 ; y0 = 0 ; y1 = 0 ; 
C mass balance (kg/s) : sourceTerm = 0 ; x0 = -0.00500001 ; x1 = 5.19671e-94 ; y0 = 0 ; y1 = 0 ; 
ExecutionTime = 0.1 s  ClockTime = 0 s

deltaT = 0.0999891 ; dtheta = 0
Time = 4.9541

DICPCG:  Solving for h, Initial residual = 1.50051e-13, Final residual = 1.50051e-13, No Iterations 0
Picard iteration (H) : 1 residual = 0
dimensions      [0 0 0 0 0 0 0];

internalField   uniform 1858.14;

boundaryField
{
    x0
    {
        type            calculated;
        value           uniform 1858.14;
    }
    x1
    {
        type            calculated;
        value           uniform 1858.14;
    }
    y0
    {
        type            calculated;
        value           uniform 1858.14;
    }
    y1
    {
        type            calculated;
        value           uniform 1858.14;
    }
    z0
    {
        type            empty;
    }
    z1
    {
        type            empty;
    }
}

DILUPBiCG:  Solving for C, Initial residual = 0.00539204, Final residual = 1.94573e-15, No Iterations 1
Concentration Min(C) = 1.47352e-91 Max(C) = 1 dCdTmax = 7.88953e-05 mass(C) = 3.90934e-05 dCmax = 7.88867e-06
Picard iteration (C) : 1 residual = 7.88867e-06
Saturation theta  Min(theta) = 1 Max(theta) = 1
Head pressure h   Min(h) = 0.025 Max(h) = 0.975
Water mass balance (m3/s) : sourceTerm = 0 ; x0 = -0.00500001 ; x1 = 0.00500001 ; y0 = 0 ; y1 = 0 ; 
C mass balance (kg/s) : sourceTerm = 0 ; x0 = -0.00500001 ; x1 = 7.3676e-94 ; y0 = 0 ; y1 = 0 ; 
ExecutionTime = 0.1 s  ClockTime = 0 s

deltaT = 0.0999891 ; dtheta = 0
Time = 5.05409

DICPCG:  Solving for h, Initial residual = 1.50051e-13, Final residual = 1.50051e-13, No Iterations 0
Picard iteration (H) : 1 residual = 0
dimensions      [0 0 0 0 0 0 0];

internalField   uniform 1858.14;

boundaryField
{
    x0
    {
        type            calculated;
        value           uniform 1858.14;
    }
    x1
    {
        type            calculated;
        value           uniform 1858.14;
    }
    y0
    {
        type            calculated;
        value           uniform 1858.14;
    }
    y1
    {
        type            calculated;
        value           uniform 1858.14;
    }
    z0
    {
        type            empty;
    }
    z1
    {
        type            empty;
    }
}

DILUPBiCG:  Solving for C, Initial residual = 0.00528379, Final residual = 1.9069e-15, No Iterations 1
[...]
Water mass balance (m3/s) : sourceTerm = 0 ; x0 = -0.00500001 ; x1 = 0.00500001 ; y0 = 0 ; y1 = 0 ; 
C mass balance (kg/s) : sourceTerm = 0 ; x0 = -0.00500001 ; x1 = 7.40324e-66 ; y0 = 0 ; y1 = 0 ; 
ExecutionTime = 2.36 s  ClockTime = 2 s

deltaT = 0.0999891 ; dtheta = 0
Time = 145.939

DICPCG:  Solving for h, Initial residual = 1.50051e-13, Final residual = 1.50051e-13, No Iterations 0
Picard iteration (H) : 1 residual = 0
dimensions      [0 0 0 0 0 0 0];

internalField   uniform 1858.14;

boundaryField
{
    x0
    {
        type            calculated;
        value           uniform 1858.14;
    }
    x1
    {
        type            calculated;
        value           uniform 1858.14;
    }
    y0
    {
        type            calculated;
        value           uniform 1858.14;
    }
    y1
    {
        type            calculated;
        value           uniform 1858.14;
    }
    z0
    {
        type            empty;
    }
    z1
    {
        type            empty;
    }
}

DILUPBiCG:  Solving for C, Initial residual = 0.000180913, Final residual = 6.55607e-17, No Iterations 1
Concentration Min(C) = 1.50095e-63 Max(C) = 1 dCdTmax = 7.84339e-05 mass(C) = 0.00115145 dCmax = 7.84254e-06
Picard iteration (C) : 1 residual = 7.84254e-06
Saturation theta  Min(theta) = 1 Max(theta) = 1
Head pressure h   Min(h) = 0.025 Max(h) = 0.975
Water mass balance (m3/s) : sourceTerm = 0 ; x0 = -0.00500001 ; x1 = 0.00500001 ; y0 = 0 ; y1 = 0 ; 
C mass balance (kg/s) : sourceTerm = 0 ; x0 = -0.00500001 ; x1 = 7.50475e-66 ; y0 = 0 ; y1 = 0 ; 
ExecutionTime = 2.36 s  ClockTime = 2 s

deltaT = 0.0999891 ; dtheta = 0
Time = 146.039

DICPCG:  Solving for h, Initial residual = 1.50051e-13, Final residual = 1.50051e-13, No Iterations 0
Picard iteration (H) : 1 residual = 0
dimensions      [0 0 0 0 0 0 0];

internalField   uniform 1858.14;

boundaryField
{
    x0
    {
        type            calculated;
        value           uniform 1858.14;
    }
    x1
    {
        type            calculated;
        value           uniform 1858.14;
    }
    y0
    {
        type            calculated;
        value           uniform 1858.14;
    }
    y1
    {
        type            calculated;
        value           uniform 1858.14;
    }
    z0
    {
        type            empty;
    }
    z1
    {
        type            empty;
    }
}

DILUPBiCG:  Solving for C, Initial residual = 0.00018079, Final residual = 6.54022e-17, No Iterations 1
Concentration Min(C) = 1.52151e-63 Max(C) = 1 dCdTmax = 7.84336e-05 mass(C) = 0.00115224 dCmax = 7.8425e-06
Picard iteration (C) : 1 residual = 7.8425e-06
Saturation theta  Min(theta) = 1 Max(theta) = 1
Head pressure h   Min(h) = 0.025 Max(h) = 0.975
Water mass balance (m3/s) : sourceTerm = 0 ; x0 = -0.00500001 ; x1 = 0.00500001 ; y0 = 0 ; y1 = 0 ; 
C mass balance (kg/s) : sourceTerm = 0 ; x0 = -0.00500001 ; x1 = 7.60759e-66 ; y0 = 0 ; y1 = 0 ; 
ExecutionTime = 2.36 s  ClockTime = 2 s

deltaT = 0.0999891 ; dtheta = 0
Time = 146.139

DICPCG:  Solving for h, Initial residual = 1.50051e-13, Final residual = 1.50051e-13, No Iterations 0
Picard iteration (H) : 1 residual = 0
dimensions      [0 0 0 0 0 0 0];

internalField   uniform 1858.14;

boundaryField
{
    x0
    {
        type            calculated;
        value           uniform 1858.14;
    }
    x1
    {
        type            calculated;
        value           uniform 1858.14;
    }
    y0
    {
        type            calculated;
        value           uniform 1858.14;
    }
    y1
    {
        type            calculated;
        value           uniform 1858.14;
    }
    z0
    {
        type            empty;
    }
    z1
    {
        type            empty;
    }
}

DILUPBiCG:  Solving for C, Initial residual = 0.000180666, Final residual = 6.54317e-17, No Iterations 1
Concentration Min(C) = 1.54235e-63 Max(C) = 1 dCdTmax = 7.84333e-05 mass(C) = 0.00115303 dCmax = 7.84247e-06
Picard iteration (C) : 1 residual = 7.84247e-06
Saturation theta  Min(theta) = 1 Max(theta) = 1
Head pressure h   Min(h) = 0.025 Max(h) = 0.975
Water mass balance (m3/s) : sourceTerm = 0 ; x0 = -0.00500001 ; x1 = 0.00500001 ; y0 = 0 ; y1 = 0 ; 
C mass balance (kg/s) : sourceTerm = 0 ; x0 = -0.00500001 ; x1 = 7.71176e-66 ; y0 = 0 ; y1 = 0 ; 
ExecutionTime = 2.36 s  ClockTime = 2 s

deltaT = 0.0999891 ; dtheta = 0
Time = 146.239

DICPCG:  Solving for h, Initial residual = 1.50051e-13, Final residual = 1.50051e-13, No Iterations 0
Picard iteration (H) : 1 residual = 0
dimensions      [0 0 0 0 0 0 0];

internalField   uniform 1858.14;

boundaryField
{
    x0
    {
        type            calculated;
        value           uniform 1858.14;
    }
    x1
    {
        type            calculated;
        value           uniform 1858.14;
    }
    y0
    {
        type            calculated;
        value           uniform 1858.14;
    }
    y1
    {
        type            calculated;
        value           uniform 1858.14;
    }
    z0
    {
        type            empty;
    }
    z1
    {
        type            empty;
    }
}

DILUPBiCG:  Solving for C, Initial residual = 0.000180543, Final residual = 6.53442e-17, No Iterations 1
Concentration Min(C) = 1.56345e-63 Max(C) = 1 dCdTmax = 7.8433e-05 mass(C) = 0.00115382 dCmax = 7.84244e-06
Picard iteration (C) : 1 residual = 7.84244e-06
Saturation theta  Min(theta) = 1 Max(theta) = 1
Head pressure h   Min(h) = 0.025 Max(h) = 0.975
Water mass balance (m3/s) : sourceTerm = 0 ; x0 = -0.00500001 ; x1 = 0.00500001 ; y0 = 0 ; y1 = 0 ; 
C mass balance (kg/s) : sourceTerm = 0 ; x0 = -0.00500001 ; x1 = 7.81728e-66 ; y0 = 0 ; y1 = 0 ; 
ExecutionTime = 2.36 s  ClockTime = 2 s

deltaT = 0.0999891 ; dtheta = 0
Time = 146.339

DICPCG:  Solving for h, Initial residual = 1.50051e-13, Final residual = 1.50051e-13, No Iterations 0
Picard iteration (H) : 1 residual = 0
dimensions      [0 0 0 0 0 0 0];

internalField   uniform 1858.14;

boundaryField
{
    x0
    {
        type            calculated;
        value           uniform 1858.14;
    }
    x1
    {
        type            calculated;
        value           uniform 1858.14;
    }
    y0
    {
        type            calculated;
        value           uniform 1858.14;
    }
    y1
    {
        type            calculated;
        value           uniform 1858.14;
    }
    z0
    {
        type            empty;
    }
    z1
    {
        type            empty;
    }
}

DILUPBiCG:  Solving for C, Initial residual = 0.00018042, Final residual = 6.53935e-17, No Iterations 1
Concentration Min(C) = 1.58483e-63 Max(C) = 1 dCdTmax = 7.84326e-05 mass(C) = 0.00115461 dCmax = 7.84241e-06
Picard iteration (C) : 1 residual = 7.84241e-06
Saturation theta  Min(theta) = 1 Max(theta) = 1
Head pressure h   Min(h) = 0.025 Max(h) = 0.975
Water mass balance (m3/s) : sourceTerm = 0 ; x0 = -0.00500001 ; x1 = 0.00500001 ; y0 = 0 ; y1 = 0 ; 
C mass balance (kg/s) : sourceTerm = 0 ; x0 = -0.00500001 ; x1 = 7.92418e-66 ; y0 = 0 ; y1 = 0 ; 
ExecutionTime = 2.36 s  ClockTime = 2 s

deltaT = 0.0999891 ; dtheta = 0
Time = 146.439

DICPCG:  Solving for h, Initial residual = 1.50051e-13, Final residual = 1.50051e-13, No Iterations 0
Picard iteration (H) : 1 residual = 0
dimensions      [0 0 0 0 0 0 0];

internalField   uniform 1858.14;

boundaryField
{
    x0
    {
        type            calculated;
        value           uniform 1858.14;
    }
    x1
    {
        type            calculated;
        value           uniform 1858.14;
    }
    y0
    {
        type            calculated;
        value           uniform 1858.14;
    }
    y1
    {
        type            calculated;
        value           uniform 1858.14;
    }
    z0
    {
        type            empty;
    }
    z1
    {
        type            empty;
    }
}

DILUPBiCG:  Solving for C, Initial residual = 0.000180297, Final residual = 6.53295e-17, No Iterations 1
Concentration Min(C) = 1.60649e-63 Max(C) = 1 dCdTmax = 7.84323e-05 mass(C) = 0.0011554 dCmax = 7.84237e-06
Picard iteration (C) : 1 residual = 7.84237e-06
Saturation theta  Min(theta) = 1 Max(theta) = 1
Head pressure h   Min(h) = 0.025 Max(h) = 0.975
Water mass balance (m3/s) : sourceTerm = 0 ; x0 = -0.00500001 ; x1 = 0.00500001 ; y0 = 0 ; y1 = 0 ; 
C mass balance (kg/s) : sourceTerm = 0 ; x0 = -0.00500001 ; x1 = 8.03247e-66 ; y0 = 0 ; y1 = 0 ; 
ExecutionTime = 2.36 s  ClockTime = 2 s

deltaT = 0.0999891 ; dtheta = 0
Time = 146.539

DICPCG:  Solving for h, Initial residual = 1.50051e-13, Final residual = 1.50051e-13, No Iterations 0
Picard iteration (H) : 1 residual = 0
dimensions      [0 0 0 0 0 0 0];

internalField   uniform 1858.14;

boundaryField
{
    x0
    {
        type            calculated;
        value           uniform 1858.14;
    }
    x1
    {
        type            calculated;
        value           uniform 1858.14;
    }
    y0
    {
        type            calculated;
        value           uniform 1858.14;
    }
    y1
    {
        type            calculated;
        value           uniform 1858.14;
    }
    z0
    {
        type            empty;
    }
    z1
    {
        type            empty;
    }
}

DILUPBiCG:  Solving for C, Initial residual = 0.000180175, Final residual = 6.5269e-17, No Iterations 1
Concentration Min(C) = 1.62843e-63 Max(C) = 1 dCdTmax = 7.8432e-05 mass(C) = 0.00115619 dCmax = 7.84234e-06
Picard iteration (C) : 1 residual = 7.84234e-06
Saturation theta  Min(theta) = 1 Max(theta) = 1
Head pressure h   Min(h) = 0.025 Max(h) = 0.975
Water mass balance (m3/s) : sourceTerm = 0 ; x0 = -0.00500001 ; x1 = 0.00500001 ; y0 = 0 ; y1 = 0 ; 
C mass balance (kg/s) : sourceTerm = 0 ; x0 = -0.00500001 ; x1 = 8.14216e-66 ; y0 = 0 ; y1 = 0 ; 
ExecutionTime = 2.37 s  ClockTime = 2 s

deltaT = 0.0999891 ; dtheta = 0
Time = 146.639

DICPCG:  Solving for h, Initial residual = 1.50051e-13, Final residual = 1.50051e-13, No Iterations 0
Picard iteration (H) : 1 residual = 0
dimensions      [0 0 0 0 0 0 0];

internalField   uniform 1858.14;

boundaryField
{
    x0
    {
        type            calculated;
        value           uniform 1858.14;
    }
    x1
    {
        type            calculated;
        value           uniform 1858.14;
    }
    y0
    {
        type            calculated;
        value           uniform 1858.14;
    }
    y1
    {
        type            calculated;
        value           uniform 1858.14;
    }
    z0
    {
        type            empty;
    }
    z1
    {
        type            empty;
    }
}

DILUPBiCG:  Solving for C, Initial residual = 0.000180052, Final residual = 6.515e-17, No Iterations 1
Concentration Min(C) = 1.65065e-63 Max(C) = 1 dCdTmax = 7.84317e-05 mass(C) = 0.00115698 dCmax = 7.84231e-06
Picard iteration (C) : 1 residual = 7.84231e-06
Saturation theta  Min(theta) = 1 Max(theta) = 1
Head pressure h   Min(h) = 0.025 Max(h) = 0.975
Water mass balance (m3/s) : sourceTerm = 0 ; x0 = -0.00500001 ; x1 = 0.00500001 ; y0 = 0 ; y1 = 0 ; 
C mass balance (kg/s) : sourceTerm = 0 ; x0 = -0.00500001 ; x1 = 8.25327e-66 ; y0 = 0 ; y1 = 0 ; 
ExecutionTime = 2.37 s  ClockTime = 2 s

deltaT = 0.0999891 ; dtheta = 0
Time = 146.739

DICPCG:  Solving for h, Initial residual = 1.50051e-13, Final residual = 1.50051e-13, No Iterations 0
Picard iteration (H) : 1 residual = 0
dimensions      [0 0 0 0 0 0 0];

internalField   uniform 1858.14;

boundaryField
{
    x0
    {
        type            calculated;
        value           uniform 1858.14;
    }
    x1
    {
        type            calculated;
        value           uniform 1858.14;
    }
    y0
    {
        type            calculated;
        value           uniform 1858.14;
    }
    y1
    {
        type            calculated;
        value           uniform 1858.14;
    }
    z0
    {
        type            empty;
    }
    z1
    {
        type            empty;
    }
}

DILUPBiCG:  Solving for C, Initial residual = 0.00017993, Final residual = 6.5173e-17, No Iterations 1
Concentration Min(C) = 1.67316e-63 Max(C) = 1 dCdTmax = 7.84313e-05 mass(C) = 0.00115776 dCmax = 7.84228e-06
Picard iteration (C) : 1 residual = 7.84228e-06
Saturation theta  Min(theta) = 1 Max(theta) = 1
Head pressure h   Min(h) = 0.025 Max(h) = 0.975
Water mass balance (m3/s) : sourceTerm = 0 ; x0 = -0.00500001 ; x1 = 0.00500001 ; y0 = 0 ; y1 = 0 ; 
C mass balance (kg/s) : sourceTerm = 0 ; x0 = -0.00500001 ; x1 = 8.36582e-66 ; y0 = 0 ; y1 = 0 ; 
ExecutionTime = 2.37 s  ClockTime = 2 s

deltaT = 0.0999891 ; dtheta = 0
Time = 146.839

DICPCG:  Solving for h, Initial residual = 1.50051e-13, Final residual = 1.50051e-13, No Iterations 0
Picard iteration (H) : 1 residual = 0
dimensions      [0 0 0 0 0 0 0];

internalField   uniform 1858.14;

boundaryField
{
    x0
    {
        type            calculated;
        value           uniform 1858.14;
    }
    x1
    {
        type            calculated;
        value           uniform 1858.14;
    }
    y0
    {
        type            calculated;
        value           uniform 1858.14;
    }
    y1
    {
        type            calculated;
        value           uniform 1858.14;
    }
    z0
    {
        type            empty;
    }
    z1
    {
        type            empty;
    }
}

DILUPBiCG:  Solving for C, Initial residual = 0.000179807, Final residual = 6.51245e-17, No Iterations 1
Concentration Min(C) = 1.69596e-63 Max(C) = 1 dCdTmax = 7.8431e-05 mass(C) = 0.00115855 dCmax = 7.84224e-06
Picard iteration (C) : 1 residual = 7.84224e-06
Saturation theta  Min(theta) = 1 Max(theta) = 1
Head pressure h   Min(h) = 0.025 Max(h) = 0.975
Water mass balance (m3/s) : sourceTerm = 0 ; x0 = -0.00500001 ; x1 = 0.00500001 ; y0 = 0 ; y1 = 0 ; 
C mass balance (kg/s) : sourceTerm = 0 ; x0 = -0.00500001 ; x1 = 8.47983e-66 ; y0 = 0 ; y1 = 0 ; 
ExecutionTime = 2.37 s  ClockTime = 2 s

deltaT = 0.0999891 ; dtheta = 0
Time = 146.939

DICPCG:  Solving for h, Initial residual = 1.50051e-13, Final residual = 1.50051e-13, No Iterations 0
Picard iteration (H) : 1 residual = 0
dimensions      [0 0 0 0 0 0 0];

internalField   uniform 1858.14;

boundaryField
{
    x0
    {
        type            calculated;
        value           uniform 1858.14;
    }
    x1
    {
        type            calculated;
        value           uniform 1858.14;
    }
    y0
    {
        type            calculated;
        value           uniform 1858.14;
    }
    y1
    {
        type            calculated;
        value           uniform 1858.14;
    }
    z0
    {
        type            empty;
    }
    z1
    {
        type            empty;
    }
}

DILUPBiCG:  Solving for C, Initial residual = 0.000179685, Final residual = 6.50883e-17, No Iterations 1
Concentration Min(C) = 1.71906e-63 Max(C) = 1 dCdTmax = 7.84307e-05 mass(C) = 0.00115934 dCmax = 7.84221e-06
Picard iteration (C) : 1 residual = 7.84221e-06
Saturation theta  Min(theta) = 1 Max(theta) = 1
Head pressure h   Min(h) = 0.025 Max(h) = 0.975
Water mass balance (m3/s) : sourceTerm = 0 ; x0 = -0.00500001 ; x1 = 0.00500001 ; y0 = 0 ; y1 = 0 ; 
C mass balance (kg/s) : sourceTerm = 0 ; x0 = -0.00500001 ; x1 = 8.59531e-66 ; y0 = 0 ; y1 = 0 ; 
ExecutionTime = 2.37 s  ClockTime = 2 s

deltaT = 0.0999891 ; dtheta = 0
Time = 147.039

DICPCG:  Solving for h, Initial residual = 1.50051e-13, Final residual = 1.50051e-13, No Iterations 0
Picard iteration (H) : 1 residual = 0
dimensions      [0 0 0 0 0 0 0];

internalField   uniform 1858.14;

boundaryField
{
    x0
    {
        type            calculated;
        value           uniform 1858.14;
    }
    x1
    {
        type            calculated;
        value           uniform 1858.14;
    }
    y0
    {
        type            calculated;
        value           uniform 1858.14;
    }
    y1
    {
        type            calculated;
        value           uniform 1858.14;
    }
    z0
    {
        type            empty;
    }
    z1
    {
        type            empty;
    }
}

DILUPBiCG:  Solving for C, Initial residual = 0.000179563, Final residual = 6.50402e-17, No Iterations 1
Concentration Min(C) = 1.74245e-63 Max(C) = 1 dCdTmax = 7.84303e-05 mass(C) = 0.00116013 dCmax = 7.84218e-06
Picard iteration (C) : 1 residual = 7.84218e-06
Saturation theta  Min(theta) = 1 Max(theta) = 1
Head pressure h   Min(h) = 0.025 Max(h) = 0.975
Water mass balance (m3/s) : sourceTerm = 0 ; x0 = -0.00500001 ; x1 = 0.00500001 ; y0 = 0 ; y1 = 0 ; 
C mass balance (kg/s) : sourceTerm = 0 ; x0 = -0.00500001 ; x1 = 8.71229e-66 ; y0 = 0 ; y1 = 0 ; 
ExecutionTime = 2.37 s  ClockTime = 2 s

deltaT = 0.0999891 ; dtheta = 0
Time = 147.139

DICPCG:  Solving for h, Initial residual = 1.50051e-13, Final residual = 1.50051e-13, No Iterations 0
Picard iteration (H) : 1 residual = 0
dimensions      [0 0 0 0 0 0 0];

internalField   uniform 1858.14;

boundaryField
{
    x0
    {
        type            calculated;
        value           uniform 1858.14;
    }
    x1
    {
        type            calculated;
        value           uniform 1858.14;
    }
    y0
    {
        type            calculated;
        value           uniform 1858.14;
    }
    y1
    {
        type            calculated;
        value           uniform 1858.14;
    }
    z0
    {
        type            empty;
    }
    z1
    {
        type            empty;
    }
}

DILUPBiCG:  Solving for C, Initial residual = 0.000179442, Final residual = 6.49532e-17, No Iterations 1
Concentration Min(C) = 1.76615e-63 Max(C) = 1 dCdTmax = 7.843e-05 mass(C) = 0.00116092 dCmax = 7.84215e-06
Picard iteration (C) : 1 residual = 7.84215e-06
Saturation theta  Min(theta) = 1 Max(theta) = 1
Head pressure h   Min(h) = 0.025 Max(h) = 0.975
Water mass balance (m3/s) : sourceTerm = 0 ; x0 = -0.00500001 ; x1 = 0.00500001 ; y0 = 0 ; y1 = 0 ; 
C mass balance (kg/s) : sourceTerm = 0 ; x0 = -0.00500001 ; x1 = 8.83077e-66 ; y0 = 0 ; y1 = 0 ; 
ExecutionTime = 2.37 s  ClockTime = 2 s

deltaT = 0.0999891 ; dtheta = 0
Time = 147.239

DICPCG:  Solving for h, Initial residual = 1.50051e-13, Final residual = 1.50051e-13, No Iterations 0
Picard iteration (H) : 1 residual = 0
dimensions      [0 0 0 0 0 0 0];

internalField   uniform 1858.14;

boundaryField
{
    x0
    {
        type            calculated;
        value           uniform 1858.14;
    }
    x1
    {
        type            calculated;
        value           uniform 1858.14;
    }
    y0
    {
        type            calculated;
        value           uniform 1858.14;
    }
    y1
    {
        type            calculated;
        value           uniform 1858.14;
    }
    z0
    {
        type            empty;
    }
    z1
    {
        type            empty;
    }
}

DILUPBiCG:  Solving for C, Initial residual = 0.00017932, Final residual = 6.49797e-17, No Iterations 1
Concentration Min(C) = 1.79016e-63 Max(C) = 1 dCdTmax = 7.84297e-05 mass(C) = 0.00116171 dCmax = 7.84211e-06
Picard iteration (C) : 1 residual = 7.84211e-06
Saturation theta  Min(theta) = 1 Max(theta) = 1
Head pressure h   Min(h) = 0.025 Max(h) = 0.975
Water mass balance (m3/s) : sourceTerm = 0 ; x0 = -0.00500001 ; x1 = 0.00500001 ; y0 = 0 ; y1 = 0 ; 
C mass balance (kg/s) : sourceTerm = 0 ; x0 = -0.00500001 ; x1 = 8.95079e-66 ; y0 = 0 ; y1 = 0 ; 
ExecutionTime = 2.38 s  ClockTime = 2 s

deltaT = 0.0999891 ; dtheta = 0
Time = 147.339

DICPCG:  Solving for h, Initial residual = 1.50051e-13, Final residual = 1.50051e-13, No Iterations 0
Picard iteration (H) : 1 residual = 0
dimensions      [0 0 0 0 0 0 0];

internalField   uniform 1858.14;

boundaryField
{
    x0
    {
        type            calculated;
        value           uniform 1858.14;
    }
    x1
    {
        type            calculated;
        value           uniform 1858.14;
    }
    y0
    {
        type            calculated;
        value           uniform 1858.14;
    }
    y1
    {
        type            calculated;
        value           uniform 1858.14;
    }
    z0
    {
        type            empty;
    }
    z1
    {
        type            empty;
    }
}

